ala-732a6168-ec8f-4221-bdf9-2a1e37f645cc.pdb
 OpenBabel12122316093D

 22 21  0  0  1  0  0  0  0  0999 V2000
   -3.4960   -0.6800   -0.0440 C   0  0  0  0  0  0  0  0  0  0  0  0
   -3.9360    0.1590    0.5380 H   0  0  0  0  0  0  0  0  0  0  0  0
   -3.3370   -1.5520    0.6250 H   0  0  0  0  0  0  0  0  0  0  0  0
   -4.2040   -0.9720   -0.8500 H   0  0  0  0  0  0  0  0  0  0  0  0
   -2.2150   -0.2640   -0.6510 C   0  0  0  0  0  0  0  0  0  0  0  0
   -2.0280   -0.3580   -1.8600 O   0  0  0  0  0  0  0  0  0  0  0  0
   -1.2880    0.2160    0.1860 N   0  0  0  0  0  0  0  0  0  0  0  0
   -1.4500    0.2280    1.1690 H   0  0  0  0  0  0  0  0  0  0  0  0
    0.0270    0.6320   -0.2420 C   0  0  1  0  0  0  0  0  0  0  0  0
    0.1220    0.5310   -1.3160 H   0  0  0  0  0  0  0  0  0  0  0  0
    0.2780    2.1050    0.1490 C   0  0  0  0  0  0  0  0  0  0  0  0
   -0.4980    2.7500   -0.3190 H   0  0  0  0  0  0  0  0  0  0  0  0
    0.2260    2.2370    1.2520 H   0  0  0  0  0  0  0  0  0  0  0  0
    1.2750    2.4450   -0.2040 H   0  0  0  0  0  0  0  0  0  0  0  0
    1.0820   -0.2600    0.3940 C   0  0  0  0  0  0  0  0  0  0  0  0
    0.9160   -0.7460    1.5090 O   0  0  0  0  0  0  0  0  0  0  0  0
    2.2080   -0.4850   -0.3160 N   0  0  0  0  0  0  0  0  0  0  0  0
    2.3080   -0.0960   -1.2270 H   0  0  0  0  0  0  0  0  0  0  0  0
    3.2830   -1.3040    0.1970 C   0  0  0  0  0  0  0  0  0  0  0  0
    3.0310   -2.3840    0.0900 H   0  0  0  0  0  0  0  0  0  0  0  0
    4.2280   -1.1060   -0.3580 H   0  0  0  0  0  0  0  0  0  0  0  0
    3.4670   -1.0970    1.2780 H   0  0  0  0  0  0  0  0  0  0  0  0
  1  2  1  0  0  0  0
  1  3  1  0  0  0  0
  4  1  1  0  0  0  0
  5  1  1  0  0  0  0
  5  7  1  0  0  0  0
  6  5  2  0  0  0  0
  7  8  1  0  0  0  0
  9 10  1  6  0  0  0
  9 11  1  0  0  0  0
  9  7  1  0  0  0  0
  9 15  1  0  0  0  0
 11 13  1  0  0  0  0
 12 11  1  0  0  0  0
 14 11  1  0  0  0  0
 15 16  2  0  0  0  0
 17 19  1  0  0  0  0
 17 15  1  0  0  0  0
 18 17  1  0  0  0  0
 19 22  1  0  0  0  0
 20 19  1  0  0  0  0
 21 19  1  0  0  0  0
M  END
>  <REMARK>
  EXECUTING CHARMM SCRIPT FROM PYTHON                                           
   DATE:    12/ 8/23     14:57: 8      CREATED BY USER: himmelreich             

$$$$
