ala-732a6168-ec8f-4221-bdf9-2a1e37f645cc-end.pdb
 OpenBabel12122316093D

 22 21  0  0  1  0  0  0  0  0999 V2000
   -3.5150   -1.0860    0.0620 C   0  0  0  0  0  0  0  0  0  0  0  0
   -3.3180   -2.0610    0.5390 H   0  0  0  0  0  0  0  0  0  0  0  0
   -3.5570   -1.3490   -1.0510 H   0  0  0  0  0  0  0  0  0  0  0  0
   -4.4660   -0.6550    0.3140 H   0  0  0  0  0  0  0  0  0  0  0  0
   -2.3620   -0.1430    0.1480 C   0  0  0  0  0  0  0  0  0  0  0  0
   -2.6390    1.0030    0.5170 O   0  0  0  0  0  0  0  0  0  0  0  0
   -1.1360   -0.6470   -0.0880 N   0  0  0  0  0  0  0  0  0  0  0  0
   -1.0860   -1.5310   -0.3870 H   0  0  0  0  0  0  0  0  0  0  0  0
   -0.0220    0.1120    0.3700 C   0  0  1  0  0  0  0  0  0  0  0  0
   -0.2840    1.1730    0.2190 H   0  0  0  0  0  0  0  0  0  0  0  0
    0.2560   -0.1200    1.8550 C   0  0  0  0  0  0  0  0  0  0  0  0
   -0.6170    0.2120    2.4150 H   0  0  0  0  0  0  0  0  0  0  0  0
    0.3600   -1.2250    2.1420 H   0  0  0  0  0  0  0  0  0  0  0  0
    1.1240    0.5040    2.2300 H   0  0  0  0  0  0  0  0  0  0  0  0
    1.1880   -0.1680   -0.5950 C   0  0  0  0  0  0  0  0  0  0  0  0
    1.1800   -0.8790   -1.5840 O   0  0  0  0  0  0  0  0  0  0  0  0
    2.3050    0.5400   -0.2540 N   0  0  0  0  0  0  0  0  0  0  0  0
    2.4190    1.1380    0.5670 H   0  0  0  0  0  0  0  0  0  0  0  0
    3.5030    0.1860   -1.0570 C   0  0  0  0  0  0  0  0  0  0  0  0
    4.3660    0.9040   -0.7730 H   0  0  0  0  0  0  0  0  0  0  0  0
    3.8990   -0.7850   -0.7960 H   0  0  0  0  0  0  0  0  0  0  0  0
    3.3910    0.3200   -2.1000 H   0  0  0  0  0  0  0  0  0  0  0  0
  1  5  1  0  0  0  0
  1  4  1  0  0  0  0
  1  2  1  0  0  0  0
  3  1  1  0  0  0  0
  5  6  2  0  0  0  0
  7  5  1  0  0  0  0
  7  9  1  0  0  0  0
  8  7  1  0  0  0  0
  9 10  1  6  0  0  0
  9 11  1  0  0  0  0
 11 13  1  0  0  0  0
 11 14  1  0  0  0  0
 11 12  1  0  0  0  0
 15 17  1  0  0  0  0
 15  9  1  0  0  0  0
 16 15  2  0  0  0  0
 17 18  1  0  0  0  0
 19 21  1  0  0  0  0
 19 20  1  0  0  0  0
 19 17  1  0  0  0  0
 22 19  1  0  0  0  0
M  END
>  <REMARK>
  EXECUTING CHARMM SCRIPT FROM PYTHON                                           
   DATE:    12/ 8/23     14:57: 9      CREATED BY USER: himmelreich             

$$$$
