arg-2fc65a7c-8865-4b48-ba57-794b062fc375-end.pdb
 OpenBabel12122316093D

 36 35  0  0  1  0  0  0  0  0999 V2000
   -5.0410    0.7160   -0.0870 C   0  0  0  0  0  0  0  0  0  0  0  0
   -5.8070    0.8330   -0.8290 H   0  0  0  0  0  0  0  0  0  0  0  0
   -4.7460    1.7080    0.3960 H   0  0  0  0  0  0  0  0  0  0  0  0
   -5.2870   -0.0100    0.7030 H   0  0  0  0  0  0  0  0  0  0  0  0
   -3.8010    0.1960   -0.7770 C   0  0  0  0  0  0  0  0  0  0  0  0
   -3.8730   -0.4580   -1.8160 O   0  0  0  0  0  0  0  0  0  0  0  0
   -2.7480    0.4850   -0.0840 N   0  0  0  0  0  0  0  0  0  0  0  0
   -2.7020    0.9370    0.7890 H   0  0  0  0  0  0  0  0  0  0  0  0
   -1.3980    0.0580   -0.4480 C   0  0  1  0  0  0  0  0  0  0  0  0
   -1.2840   -0.6140   -1.3080 H   0  0  0  0  0  0  0  0  0  0  0  0
   -0.5480    1.3270   -0.8250 C   0  0  0  0  0  0  0  0  0  0  0  0
   -1.0450    1.7380   -1.6910 H   0  0  0  0  0  0  0  0  0  0  0  0
   -0.7680    2.0480    0.0100 H   0  0  0  0  0  0  0  0  0  0  0  0
    0.8850    1.0650   -1.2490 C   0  0  0  0  0  0  0  0  0  0  0  0
    1.0860   -0.0590   -1.4850 H   0  0  0  0  0  0  0  0  0  0  0  0
    0.9090    1.5710   -2.2560 H   0  0  0  0  0  0  0  0  0  0  0  0
    1.9170    1.7060   -0.3620 C   0  0  0  0  0  0  0  0  0  0  0  0
    2.0010    2.7760   -0.5510 H   0  0  0  0  0  0  0  0  0  0  0  0
    1.6140    1.5210    0.6590 H   0  0  0  0  0  0  0  0  0  0  0  0
    3.1940    1.0590   -0.7590 N   0  0  0  0  0  0  0  0  0  0  0  0
    3.6290    1.2650   -1.6490 H   0  0  0  0  0  0  0  0  0  0  0  0
    3.7740    0.0590   -0.0620 C   0  0  0  0  0  0  0  0  0  0  0  0
    4.9890   -0.3010   -0.3720 N   0  0  0  0  0  4  0  0  0  0  0  0
    5.3270   -1.2620   -0.1400 H   0  0  0  0  0  0  0  0  0  0  0  0
    5.6000    0.3730   -0.8060 H   0  0  0  0  0  0  0  0  0  0  0  0
    3.0890   -0.6400    0.7880 N   0  0  0  0  0  0  0  0  0  0  0  0
    3.4930   -1.4120    1.2290 H   0  0  0  0  0  0  0  0  0  0  0  0
    2.1100   -0.5880    0.7050 H   0  0  0  0  0  0  0  0  0  0  0  0
   -0.7640   -0.7190    0.6890 C   0  0  0  0  0  0  0  0  0  0  0  0
    0.4330   -0.5880    1.0120 O   0  0  0  0  0  0  0  0  0  0  0  0
   -1.5590   -1.5690    1.3280 N   0  0  0  0  0  0  0  0  0  0  0  0
   -2.4120   -1.8570    0.9590 H   0  0  0  0  0  0  0  0  0  0  0  0
   -1.2210   -2.3310    2.5300 C   0  0  0  0  0  0  0  0  0  0  0  0
   -2.0650   -3.0970    2.6760 H   0  0  0  0  0  0  0  0  0  0  0  0
   -0.2560   -2.8570    2.5000 H   0  0  0  0  0  0  0  0  0  0  0  0
   -1.3030   -1.6170    3.3780 H   0  0  0  0  0  0  0  0  0  0  0  0
  1  3  1  0  0  0  0
  1  4  1  0  0  0  0
  2  1  1  0  0  0  0
  5  1  1  0  0  0  0
  5  7  1  0  0  0  0
  6  5  2  0  0  0  0
  7  8  1  0  0  0  0
  9 10  1  6  0  0  0
  9  7  1  0  0  0  0
  9 29  1  0  0  0  0
 11  9  1  0  0  0  0
 11 13  1  0  0  0  0
 12 11  1  0  0  0  0
 14 11  1  0  0  0  0
 14 17  1  0  0  0  0
 15 14  1  0  0  0  0
 16 14  1  0  0  0  0
 17 19  1  0  0  0  0
 18 17  1  0  0  0  0
 20 17  1  0  0  0  0
 20 22  1  0  0  0  0
 21 20  1  0  0  0  0
 22 26  1  0  0  0  0
 23 24  1  0  0  0  0
 23 22  2  0  0  0  0
 25 23  1  0  0  0  0
 26 27  1  0  0  0  0
 28 26  1  0  0  0  0
 29 30  2  0  0  0  0
 29 31  1  0  0  0  0
 31 33  1  0  0  0  0
 32 31  1  0  0  0  0
 33 34  1  0  0  0  0
 33 36  1  0  0  0  0
 35 33  1  0  0  0  0
M  END
>  <REMARK>
  EXECUTING CHARMM SCRIPT FROM PYTHON                                           
   DATE:    12/ 8/23     14:57:12      CREATED BY USER: himmelreich             

$$$$
