arg-2fc65a7c-8865-4b48-ba57-794b062fc375.pdb
 OpenBabel12122316093D

 36 35  0  0  1  0  0  0  0  0999 V2000
   -5.1930    1.5600   -0.1830 C   0  0  0  0  0  0  0  0  0  0  0  0
   -4.9340    2.4700    0.3960 H   0  0  0  0  0  0  0  0  0  0  0  0
   -5.7860    0.8710    0.4550 H   0  0  0  0  0  0  0  0  0  0  0  0
   -5.8180    1.8590   -1.0540 H   0  0  0  0  0  0  0  0  0  0  0  0
   -3.9730    0.8780   -0.6770 C   0  0  0  0  0  0  0  0  0  0  0  0
   -3.9150    0.4240   -1.8060 O   0  0  0  0  0  0  0  0  0  0  0  0
   -2.9410    0.7860    0.1730 N   0  0  0  0  0  0  0  0  0  0  0  0
   -3.0260    1.1250    1.1050 H   0  0  0  0  0  0  0  0  0  0  0  0
   -1.7080    0.1160   -0.1860 C   0  0  1  0  0  0  0  0  0  0  0  0
   -1.7060   -0.1230   -1.2390 H   0  0  0  0  0  0  0  0  0  0  0  0
   -0.4570    0.9970    0.0810 C   0  0  0  0  0  0  0  0  0  0  0  0
   -0.5470    1.9190   -0.5360 H   0  0  0  0  0  0  0  0  0  0  0  0
   -0.4610    1.3050    1.1510 H   0  0  0  0  0  0  0  0  0  0  0  0
    0.8740    0.2820   -0.2430 C   0  0  0  0  0  0  0  0  0  0  0  0
    0.9550   -0.6470    0.3690 H   0  0  0  0  0  0  0  0  0  0  0  0
    0.8510   -0.0140   -1.3170 H   0  0  0  0  0  0  0  0  0  0  0  0
    2.1160    1.1240    0.0470 C   0  0  0  0  0  0  0  0  0  0  0  0
    2.1230    2.0480   -0.5760 H   0  0  0  0  0  0  0  0  0  0  0  0
    2.1470    1.3840    1.1330 H   0  0  0  0  0  0  0  0  0  0  0  0
    3.2840    0.2560   -0.3130 N   0  0  0  0  0  0  0  0  0  0  0  0
    3.0990   -0.6160   -0.7520 H   0  0  0  0  0  0  0  0  0  0  0  0
    4.5500    0.5380   -0.0350 C   0  0  0  0  0  0  0  0  0  0  0  0
    5.4850   -0.3260   -0.3880 N   0  0  0  0  0  4  0  0  0  0  0  0
    6.4360   -0.1240   -0.1900 H   0  0  0  0  0  0  0  0  0  0  0  0
    5.2280   -1.1570   -0.8590 H   0  0  0  0  0  0  0  0  0  0  0  0
    4.9030    1.6400    0.5790 N   0  0  0  0  0  0  0  0  0  0  0  0
    5.8570    1.8180    0.7830 H   0  0  0  0  0  0  0  0  0  0  0  0
    4.1910    2.2760    0.8500 H   0  0  0  0  0  0  0  0  0  0  0  0
   -1.5510   -1.1930    0.5690 C   0  0  0  0  0  0  0  0  0  0  0  0
   -1.3100   -1.1940    1.7700 O   0  0  0  0  0  0  0  0  0  0  0  0
   -1.6310   -2.3320   -0.1450 N   0  0  0  0  0  0  0  0  0  0  0  0
   -1.8980   -2.2950   -1.1070 H   0  0  0  0  0  0  0  0  0  0  0  0
   -1.3660   -3.6400    0.4230 C   0  0  0  0  0  0  0  0  0  0  0  0
   -2.2370   -4.3150    0.2720 H   0  0  0  0  0  0  0  0  0  0  0  0
   -0.4800   -4.1000   -0.0680 H   0  0  0  0  0  0  0  0  0  0  0  0
   -1.1620   -3.6000    1.5190 H   0  0  0  0  0  0  0  0  0  0  0  0
  1  2  1  0  0  0  0
  1  3  1  0  0  0  0
  4  1  1  0  0  0  0
  5  1  1  0  0  0  0
  5  7  1  0  0  0  0
  6  5  2  0  0  0  0
  7  8  1  0  0  0  0
  9 10  1  6  0  0  0
  9 11  1  0  0  0  0
  9  7  1  0  0  0  0
  9 29  1  0  0  0  0
 11 13  1  0  0  0  0
 12 11  1  0  0  0  0
 14 17  1  0  0  0  0
 14 11  1  0  0  0  0
 14 15  1  0  0  0  0
 16 14  1  0  0  0  0
 17 19  1  0  0  0  0
 18 17  1  0  0  0  0
 20 22  1  0  0  0  0
 20 17  1  0  0  0  0
 21 20  1  0  0  0  0
 22 26  1  0  0  0  0
 23 24  1  0  0  0  0
 23 22  2  0  0  0  0
 25 23  1  0  0  0  0
 26 27  1  0  0  0  0
 26 28  1  0  0  0  0
 29 30  2  0  0  0  0
 31 33  1  0  0  0  0
 31 29  1  0  0  0  0
 32 31  1  0  0  0  0
 33 36  1  0  0  0  0
 34 33  1  0  0  0  0
 35 33  1  0  0  0  0
M  END
>  <REMARK>
  EXECUTING CHARMM SCRIPT FROM PYTHON                                           
   DATE:    12/ 8/23     14:57:11      CREATED BY USER: himmelreich             

$$$$
