asn-df3adc99-d8f7-4b11-91dd-01ee06b25f6a.pdb
 OpenBabel12122316093D

 26 25  0  0  1  0  0  0  0  0999 V2000
   -3.8820    0.3130   -0.4170 C   0  0  0  0  0  0  0  0  0  0  0  0
   -4.2670    1.1490    0.2050 H   0  0  0  0  0  0  0  0  0  0  0  0
   -4.0640   -0.6490    0.1070 H   0  0  0  0  0  0  0  0  0  0  0  0
   -4.4310    0.3050   -1.3830 H   0  0  0  0  0  0  0  0  0  0  0  0
   -2.4370    0.5030   -0.6770 C   0  0  0  0  0  0  0  0  0  0  0  0
   -2.0440    1.2150   -1.5940 O   0  0  0  0  0  0  0  0  0  0  0  0
   -1.5840   -0.1320    0.1320 N   0  0  0  0  0  0  0  0  0  0  0  0
   -1.8950   -0.7380    0.8590 H   0  0  0  0  0  0  0  0  0  0  0  0
   -0.1590   -0.0840   -0.0980 C   0  0  1  0  0  0  0  0  0  0  0  0
   -0.0020   -0.2140   -1.1630 H   0  0  0  0  0  0  0  0  0  0  0  0
    0.4460    1.2570    0.4080 C   0  0  0  0  0  0  0  0  0  0  0  0
   -0.3020    2.0710    0.2950 H   0  0  0  0  0  0  0  0  0  0  0  0
    0.7290    1.2140    1.4780 H   0  0  0  0  0  0  0  0  0  0  0  0
    1.6660    1.6110   -0.4280 C   0  0  0  0  0  0  0  0  0  0  0  0
    2.8030    1.3740   -0.0220 O   0  0  0  0  0  0  0  0  0  0  0  0
    1.4360    2.1600   -1.6420 N   0  0  0  0  0  0  0  0  0  0  0  0
    2.2290    2.3880   -2.1970 H   0  0  0  0  0  0  0  0  0  0  0  0
    0.4950    2.2940   -1.9500 H   0  0  0  0  0  0  0  0  0  0  0  0
    0.4750   -1.2950    0.5740 C   0  0  0  0  0  0  0  0  0  0  0  0
   -0.2330   -2.2120    0.9860 O   0  0  0  0  0  0  0  0  0  0  0  0
    1.8200   -1.3250    0.6890 N   0  0  0  0  0  0  0  0  0  0  0  0
    2.3630   -0.5330    0.3940 H   0  0  0  0  0  0  0  0  0  0  0  0
    2.5520   -2.4410    1.2480 C   0  0  0  0  0  0  0  0  0  0  0  0
    1.9060   -3.3320    1.4270 H   0  0  0  0  0  0  0  0  0  0  0  0
    3.3650   -2.7470    0.5520 H   0  0  0  0  0  0  0  0  0  0  0  0
    3.0150   -2.1510    2.2170 H   0  0  0  0  0  0  0  0  0  0  0  0
  1  3  1  0  0  0  0
  1  2  1  0  0  0  0
  4  1  1  0  0  0  0
  5  1  1  0  0  0  0
  5  7  1  0  0  0  0
  6  5  2  0  0  0  0
  7  8  1  0  0  0  0
  9 10  1  6  0  0  0
  9  7  1  0  0  0  0
  9 11  1  0  0  0  0
  9 19  1  0  0  0  0
 11 13  1  0  0  0  0
 12 11  1  0  0  0  0
 14 15  2  0  0  0  0
 14 11  1  0  0  0  0
 16 14  1  0  0  0  0
 17 16  1  0  0  0  0
 18 16  1  0  0  0  0
 19 21  1  0  0  0  0
 19 20  2  0  0  0  0
 21 23  1  0  0  0  0
 22 21  1  0  0  0  0
 23 24  1  0  0  0  0
 23 26  1  0  0  0  0
 25 23  1  0  0  0  0
M  END
>  <REMARK>
  EXECUTING CHARMM SCRIPT FROM PYTHON                                           
   DATE:    12/ 8/23     14:57:14      CREATED BY USER: himmelreich             

$$$$
