asn-df3adc99-d8f7-4b11-91dd-01ee06b25f6a-end.pdb
 OpenBabel12122316093D

 26 25  0  0  1  0  0  0  0  0999 V2000
   -3.9650    0.3720   -0.3000 C   0  0  0  0  0  0  0  0  0  0  0  0
   -4.2890    1.4280   -0.3020 H   0  0  0  0  0  0  0  0  0  0  0  0
   -3.9420   -0.1220    0.6420 H   0  0  0  0  0  0  0  0  0  0  0  0
   -4.6800   -0.1230   -0.9510 H   0  0  0  0  0  0  0  0  0  0  0  0
   -2.5620    0.4010   -0.8100 C   0  0  0  0  0  0  0  0  0  0  0  0
   -2.2750    0.7900   -1.9840 O   0  0  0  0  0  0  0  0  0  0  0  0
   -1.7120   -0.0630    0.0850 N   0  0  0  0  0  0  0  0  0  0  0  0
   -1.9430   -0.3570    0.9440 H   0  0  0  0  0  0  0  0  0  0  0  0
   -0.2820    0.0120   -0.1050 C   0  0  1  0  0  0  0  0  0  0  0  0
   -0.1990   -0.0570   -1.2230 H   0  0  0  0  0  0  0  0  0  0  0  0
    0.2150    1.3410    0.4670 C   0  0  0  0  0  0  0  0  0  0  0  0
   -0.3980    2.0970    0.0120 H   0  0  0  0  0  0  0  0  0  0  0  0
    0.1060    1.3640    1.5930 H   0  0  0  0  0  0  0  0  0  0  0  0
    1.7260    1.5940    0.1640 C   0  0  0  0  0  0  0  0  0  0  0  0
    2.4000    1.1320   -0.7920 O   0  0  0  0  0  0  0  0  0  0  0  0
    2.3020    2.4580    1.0430 N   0  0  0  0  0  0  0  0  0  0  0  0
    3.2230    2.7400    0.8480 H   0  0  0  0  0  0  0  0  0  0  0  0
    1.7780    3.0540    1.6670 H   0  0  0  0  0  0  0  0  0  0  0  0
    0.5140   -1.2750    0.3860 C   0  0  0  0  0  0  0  0  0  0  0  0
    0.0260   -2.0870    1.0870 O   0  0  0  0  0  0  0  0  0  0  0  0
    1.6950   -1.3670   -0.1560 N   0  0  0  0  0  0  0  0  0  0  0  0
    2.0660   -0.6380   -0.7290 H   0  0  0  0  0  0  0  0  0  0  0  0
    2.6850   -2.4110   -0.0070 C   0  0  0  0  0  0  0  0  0  0  0  0
    3.2470   -2.3060    0.9160 H   0  0  0  0  0  0  0  0  0  0  0  0
    2.2050   -3.4730    0.0010 H   0  0  0  0  0  0  0  0  0  0  0  0
    3.3330   -2.4860   -0.9540 H   0  0  0  0  0  0  0  0  0  0  0  0
  1  3  1  0  0  0  0
  2  1  1  0  0  0  0
  4  1  1  0  0  0  0
  5  1  1  0  0  0  0
  5  7  1  0  0  0  0
  6  5  2  0  0  0  0
  7  8  1  0  0  0  0
  9 10  1  6  0  0  0
  9  7  1  0  0  0  0
  9 19  1  0  0  0  0
  9 11  1  0  0  0  0
 11 13  1  0  0  0  0
 12 11  1  0  0  0  0
 14 11  1  0  0  0  0
 14 16  1  0  0  0  0
 15 14  2  0  0  0  0
 16 18  1  0  0  0  0
 17 16  1  0  0  0  0
 19 20  2  0  0  0  0
 21 23  1  0  0  0  0
 21 19  1  0  0  0  0
 22 21  1  0  0  0  0
 23 25  1  0  0  0  0
 23 24  1  0  0  0  0
 26 23  1  0  0  0  0
M  END
>  <REMARK>
  EXECUTING CHARMM SCRIPT FROM PYTHON                                           
   DATE:    12/ 8/23     14:57:14      CREATED BY USER: himmelreich             

$$$$
