asp-c6e96fec-2d14-4107-82ab-bd6f3192ce14.pdb
 OpenBabel12122316093D

 24 23  0  0  1  0  0  0  0  0999 V2000
   -3.7980   -0.2540   -0.0070 C   0  0  0  0  0  0  0  0  0  0  0  0
   -3.9850    0.6510    0.6060 H   0  0  0  0  0  0  0  0  0  0  0  0
   -3.8660   -1.1590    0.6350 H   0  0  0  0  0  0  0  0  0  0  0  0
   -4.5690   -0.3190   -0.8050 H   0  0  0  0  0  0  0  0  0  0  0  0
   -2.4560   -0.1910   -0.6320 C   0  0  0  0  0  0  0  0  0  0  0  0
   -2.2820   -0.5940   -1.7730 O   0  0  0  0  0  0  0  0  0  0  0  0
   -1.4830    0.3250    0.1270 N   0  0  0  0  0  0  0  0  0  0  0  0
   -1.6730    0.6300    1.0500 H   0  0  0  0  0  0  0  0  0  0  0  0
   -0.0920    0.4050   -0.2640 C   0  0  1  0  0  0  0  0  0  0  0  0
   -0.0220    0.3810   -1.3450 H   0  0  0  0  0  0  0  0  0  0  0  0
    0.4820    1.7590    0.2570 C   0  0  0  0  0  0  0  0  0  0  0  0
   -0.2230    2.5720   -0.0140 H   0  0  0  0  0  0  0  0  0  0  0  0
    0.5860    1.7390    1.3600 H   0  0  0  0  0  0  0  0  0  0  0  0
    1.8300    2.1580   -0.3330 C   0  0  0  0  0  0  0  0  0  0  0  0
    2.3590    3.2030    0.1180 O   0  0  0  0  0  0  0  0  0  0  0  0
    2.3360    1.4390   -1.2330 O   0  0  0  0  0  0  0  0  0  0  0  0
    0.6600   -0.8220    0.2750 C   0  0  0  0  0  0  0  0  0  0  0  0
    0.1090   -1.6590    0.9940 O   0  0  0  0  0  0  0  0  0  0  0  0
    1.9490   -0.9560   -0.0730 N   0  0  0  0  0  0  0  0  0  0  0  0
    2.3420   -0.1860   -0.6090 H   0  0  0  0  0  0  0  0  0  0  0  0
    2.7810   -2.0600    0.3350 C   0  0  0  0  0  0  0  0  0  0  0  0
    2.3730   -3.0190   -0.0550 H   0  0  0  0  0  0  0  0  0  0  0  0
    3.8120   -1.9240   -0.0580 H   0  0  0  0  0  0  0  0  0  0  0  0
    2.8300   -2.1200    1.4450 H   0  0  0  0  0  0  0  0  0  0  0  0
  1  2  1  0  0  0  0
  1  3  1  0  0  0  0
  4  1  1  0  0  0  0
  5  1  1  0  0  0  0
  5  7  1  0  0  0  0
  6  5  2  0  0  0  0
  7  8  1  0  0  0  0
  9 10  1  6  0  0  0
  9  7  1  0  0  0  0
  9 11  1  0  0  0  0
  9 17  1  0  0  0  0
 11 13  1  0  0  0  0
 12 11  1  0  0  0  0
 14 15  1  0  0  0  0
 14 11  1  0  0  0  0
 16 14  2  0  0  0  0
 17 18  2  0  0  0  0
 19 17  1  0  0  0  0
 19 21  1  0  0  0  0
 20 19  1  0  0  0  0
 21 24  1  0  0  0  0
 22 21  1  0  0  0  0
 23 21  1  0  0  0  0
M  END
>  <REMARK>
  EXECUTING CHARMM SCRIPT FROM PYTHON                                           
   DATE:    12/ 8/23     14:57:16      CREATED BY USER: himmelreich             

$$$$
