asp-c6e96fec-2d14-4107-82ab-bd6f3192ce14-end.pdb
 OpenBabel12122316093D

 24 23  0  0  1  0  0  0  0  0999 V2000
   -3.7160   -0.5940   -0.1910 C   0  0  0  0  0  0  0  0  0  0  0  0
   -4.1830    0.4820   -0.2480 H   0  0  0  0  0  0  0  0  0  0  0  0
   -3.6500   -0.9850    0.8040 H   0  0  0  0  0  0  0  0  0  0  0  0
   -4.3400   -1.1720   -0.8840 H   0  0  0  0  0  0  0  0  0  0  0  0
   -2.3640   -0.3630   -0.7490 C   0  0  0  0  0  0  0  0  0  0  0  0
   -2.0470   -0.6170   -1.8680 O   0  0  0  0  0  0  0  0  0  0  0  0
   -1.5100    0.1970    0.0810 N   0  0  0  0  0  0  0  0  0  0  0  0
   -1.6850    0.4190    0.9890 H   0  0  0  0  0  0  0  0  0  0  0  0
   -0.0810    0.3390   -0.1410 C   0  0  1  0  0  0  0  0  0  0  0  0
    0.0760    0.2890   -1.2510 H   0  0  0  0  0  0  0  0  0  0  0  0
    0.4900    1.7540    0.2490 C   0  0  0  0  0  0  0  0  0  0  0  0
   -0.2900    2.5030    0.1310 H   0  0  0  0  0  0  0  0  0  0  0  0
    0.7530    1.8030    1.3500 H   0  0  0  0  0  0  0  0  0  0  0  0
    1.6330    2.2650   -0.6710 C   0  0  0  0  0  0  0  0  0  0  0  0
    2.0820    3.4420   -0.5760 O   0  0  0  0  0  0  0  0  0  0  0  0
    2.2030    1.4190   -1.3780 O   0  0  0  0  0  0  0  0  0  0  0  0
    0.6980   -0.7900    0.6190 C   0  0  0  0  0  0  0  0  0  0  0  0
    0.1700   -1.3770    1.5720 O   0  0  0  0  0  0  0  0  0  0  0  0
    1.9940   -0.9350    0.2010 N   0  0  0  0  0  0  0  0  0  0  0  0
    2.3910   -0.1440   -0.3650 H   0  0  0  0  0  0  0  0  0  0  0  0
    2.8250   -2.0380    0.6820 C   0  0  0  0  0  0  0  0  0  0  0  0
    2.3230   -2.6970    1.4690 H   0  0  0  0  0  0  0  0  0  0  0  0
    3.0030   -2.6420   -0.2230 H   0  0  0  0  0  0  0  0  0  0  0  0
    3.8400   -1.6970    0.9520 H   0  0  0  0  0  0  0  0  0  0  0  0
  1  3  1  0  0  0  0
  2  1  1  0  0  0  0
  4  1  1  0  0  0  0
  5  1  1  0  0  0  0
  5  7  1  0  0  0  0
  6  5  2  0  0  0  0
  7  8  1  0  0  0  0
  9 10  1  6  0  0  0
  9  7  1  0  0  0  0
  9 11  1  0  0  0  0
  9 17  1  0  0  0  0
 11 13  1  0  0  0  0
 12 11  1  0  0  0  0
 14 15  1  0  0  0  0
 14 11  1  0  0  0  0
 16 14  2  0  0  0  0
 17 18  2  0  0  0  0
 19 17  1  0  0  0  0
 19 21  1  0  0  0  0
 20 19  1  0  0  0  0
 21 24  1  0  0  0  0
 21 22  1  0  0  0  0
 23 21  1  0  0  0  0
M  END
>  <REMARK>
  EXECUTING CHARMM SCRIPT FROM PYTHON                                           
   DATE:    12/ 8/23     14:57:17      CREATED BY USER: himmelreich             

$$$$
