cym-9620f369-d194-4972-a88e-ed384e3dca07-end.pdb
 OpenBabel12122316093D

 22 21  0  0  1  0  0  0  0  0999 V2000
   -3.2010   -1.5510    0.0550 C   0  0  0  0  0  0  0  0  0  0  0  0
   -3.6760   -0.9410    0.8590 H   0  0  0  0  0  0  0  0  0  0  0  0
   -3.2110   -2.5960    0.3870 H   0  0  0  0  0  0  0  0  0  0  0  0
   -3.7770   -1.4230   -0.8970 H   0  0  0  0  0  0  0  0  0  0  0  0
   -1.7650   -1.2580   -0.2770 C   0  0  0  0  0  0  0  0  0  0  0  0
   -0.9510   -2.1980   -0.3910 O   0  0  0  0  0  0  0  0  0  0  0  0
   -1.3910   -0.0100   -0.3270 N   0  0  0  0  0  0  0  0  0  0  0  0
   -2.0220    0.7280   -0.3230 H   0  0  0  0  0  0  0  0  0  0  0  0
    0.0200    0.3170   -0.5280 C   0  0  1  0  0  0  0  0  0  0  0  0
    0.5360   -0.3410   -1.2310 H   0  0  0  0  0  0  0  0  0  0  0  0
    0.0130    1.6910   -1.2530 C   0  0  0  0  0  0  0  0  0  0  0  0
   -0.8870    1.6730   -1.8170 H   0  0  0  0  0  0  0  0  0  0  0  0
   -0.0070    2.5580   -0.6780 H   0  0  0  0  0  0  0  0  0  0  0  0
    1.3090    1.9520   -2.5250 S   0  0  0  0  0  0  0  0  0  0  0  0
    0.9100    0.3990    0.7600 C   0  0  0  0  0  0  0  0  0  0  0  0
    0.3920    0.0940    1.8100 O   0  0  0  0  0  0  0  0  0  0  0  0
    2.2380    0.7280    0.7470 N   0  0  0  0  0  0  0  0  0  0  0  0
    2.4420    0.9430   -0.2320 H   0  0  0  0  0  0  0  0  0  0  0  0
    3.1160    0.8150    1.8720 C   0  0  0  0  0  0  0  0  0  0  0  0
    2.7760   -0.0020    2.5960 H   0  0  0  0  0  0  0  0  0  0  0  0
    4.2200    0.4880    1.6800 H   0  0  0  0  0  0  0  0  0  0  0  0
    3.1470    1.7820    2.4330 H   0  0  0  0  0  0  0  0  0  0  0  0
  1  3  1  0  0  0  0
  1  2  1  0  0  0  0
  4  1  1  0  0  0  0
  5  1  1  0  0  0  0
  6  5  2  0  0  0  0
  7  8  1  0  0  0  0
  7  5  1  0  0  0  0
  9 10  1  6  0  0  0
  9  7  1  0  0  0  0
  9 15  1  0  0  0  0
 11 13  1  0  0  0  0
 11  9  1  0  0  0  0
 12 11  1  0  0  0  0
 14 11  1  0  0  0  0
 15 16  2  0  0  0  0
 17 15  1  0  0  0  0
 17 19  1  0  0  0  0
 18 17  1  0  0  0  0
 19 22  1  0  0  0  0
 19 20  1  0  0  0  0
 21 19  1  0  0  0  0
M  END
>  <REMARK>
  EXECUTING CHARMM SCRIPT FROM PYTHON                                           
   DATE:    12/ 8/23     14:57:20      CREATED BY USER: himmelreich             

$$$$
