cym-9620f369-d194-4972-a88e-ed384e3dca07.pdb
 OpenBabel12122316093D

 22 21  0  0  1  0  0  0  0  0999 V2000
   -3.5830   -0.5420    0.0960 C   0  0  0  0  0  0  0  0  0  0  0  0
   -3.8430    0.3890    0.6420 H   0  0  0  0  0  0  0  0  0  0  0  0
   -3.5220   -1.3890    0.8110 H   0  0  0  0  0  0  0  0  0  0  0  0
   -4.3730   -0.7560   -0.6560 H   0  0  0  0  0  0  0  0  0  0  0  0
   -2.2830   -0.3830   -0.5970 C   0  0  0  0  0  0  0  0  0  0  0  0
   -2.1170   -0.8460   -1.7180 O   0  0  0  0  0  0  0  0  0  0  0  0
   -1.3450    0.2900    0.0790 N   0  0  0  0  0  0  0  0  0  0  0  0
   -1.5260    0.6630    0.9760 H   0  0  0  0  0  0  0  0  0  0  0  0
   -0.0020    0.5450   -0.3930 C   0  0  1  0  0  0  0  0  0  0  0  0
    0.0000    0.5250   -1.4750 H   0  0  0  0  0  0  0  0  0  0  0  0
    0.3960    1.9930    0.0790 C   0  0  0  0  0  0  0  0  0  0  0  0
   -0.4850    2.6390   -0.1360 H   0  0  0  0  0  0  0  0  0  0  0  0
    0.4850    1.9780    1.1870 H   0  0  0  0  0  0  0  0  0  0  0  0
    1.8760    2.8150   -0.6620 S   0  0  0  0  0  0  0  0  0  0  0  0
    0.9580   -0.5660    0.0860 C   0  0  0  0  0  0  0  0  0  0  0  0
    0.5500   -1.6220    0.5770 O   0  0  0  0  0  0  0  0  0  0  0  0
    2.2790   -0.3520   -0.0600 N   0  0  0  0  0  0  0  0  0  0  0  0
    2.5180    0.5750   -0.3810 H   0  0  0  0  0  0  0  0  0  0  0  0
    3.2990   -1.3000    0.3110 C   0  0  0  0  0  0  0  0  0  0  0  0
    3.0850   -2.2990   -0.1300 H   0  0  0  0  0  0  0  0  0  0  0  0
    4.2910   -0.9550   -0.0530 H   0  0  0  0  0  0  0  0  0  0  0  0
    3.3420   -1.4030    1.4180 H   0  0  0  0  0  0  0  0  0  0  0  0
  1  2  1  0  0  0  0
  1  3  1  0  0  0  0
  4  1  1  0  0  0  0
  5  7  1  0  0  0  0
  5  1  1  0  0  0  0
  6  5  2  0  0  0  0
  7  8  1  0  0  0  0
  9 10  1  6  0  0  0
  9  7  1  0  0  0  0
  9 11  1  0  0  0  0
  9 15  1  0  0  0  0
 11 13  1  0  0  0  0
 12 11  1  0  0  0  0
 14 11  1  0  0  0  0
 15 16  2  0  0  0  0
 17 15  1  0  0  0  0
 17 19  1  0  0  0  0
 18 17  1  0  0  0  0
 19 22  1  0  0  0  0
 20 19  1  0  0  0  0
 21 19  1  0  0  0  0
M  END
>  <REMARK>
  EXECUTING CHARMM SCRIPT FROM PYTHON                                           
   DATE:    12/ 8/23     14:57:19      CREATED BY USER: himmelreich             

$$$$
