cys-49916cb0-72f7-4f9d-b847-a33178db5018-end.pdb
 OpenBabel12122316093D

 23 22  0  0  1  0  0  0  0  0999 V2000
   -3.3770    0.0970    1.1430 C   0  0  0  0  0  0  0  0  0  0  0  0
   -3.8860   -0.8600    1.0900 H   0  0  0  0  0  0  0  0  0  0  0  0
   -4.0920    0.8870    0.7750 H   0  0  0  0  0  0  0  0  0  0  0  0
   -3.0730    0.1270    2.2190 H   0  0  0  0  0  0  0  0  0  0  0  0
   -2.2830   -0.0830    0.2330 C   0  0  0  0  0  0  0  0  0  0  0  0
   -2.3320   -0.7980   -0.7700 O   0  0  0  0  0  0  0  0  0  0  0  0
   -1.1870    0.7370    0.4450 N   0  0  0  0  0  0  0  0  0  0  0  0
   -1.1740    1.4670    1.1170 H   0  0  0  0  0  0  0  0  0  0  0  0
   -0.0160    0.6560   -0.3490 C   0  0  1  0  0  0  0  0  0  0  0  0
   -0.3820    0.3940   -1.3650 H   0  0  0  0  0  0  0  0  0  0  0  0
    0.5410    2.0730   -0.4110 C   0  0  0  0  0  0  0  0  0  0  0  0
   -0.2970    2.7200   -0.7570 H   0  0  0  0  0  0  0  0  0  0  0  0
    0.7240    2.5500    0.5590 H   0  0  0  0  0  0  0  0  0  0  0  0
    2.1820    2.3250   -1.3700 S   0  0  0  0  0  0  0  0  0  0  0  0
    3.0000    1.6990   -0.5170 H   0  0  0  0  0  0  0  0  0  0  0  0
    0.9180   -0.3630    0.1770 C   0  0  0  0  0  0  0  0  0  0  0  0
    1.3540   -0.1820    1.2910 O   0  0  0  0  0  0  0  0  0  0  0  0
    1.2750   -1.3640   -0.6160 N   0  0  0  0  0  0  0  0  0  0  0  0
    1.0010   -1.4490   -1.5480 H   0  0  0  0  0  0  0  0  0  0  0  0
    1.8990   -2.6060   -0.0850 C   0  0  0  0  0  0  0  0  0  0  0  0
    2.5920   -2.3250    0.6940 H   0  0  0  0  0  0  0  0  0  0  0  0
    1.1470   -3.3700    0.2990 H   0  0  0  0  0  0  0  0  0  0  0  0
    2.4290   -3.0330   -0.9070 H   0  0  0  0  0  0  0  0  0  0  0  0
  1  4  1  0  0  0  0
  2  1  1  0  0  0  0
  3  1  1  0  0  0  0
  5  7  1  0  0  0  0
  5  1  1  0  0  0  0
  6  5  2  0  0  0  0
  7  8  1  0  0  0  0
  9 10  1  6  0  0  0
  9 16  1  0  0  0  0
  9  7  1  0  0  0  0
 11  9  1  0  0  0  0
 11 13  1  0  0  0  0
 12 11  1  0  0  0  0
 14 15  1  0  0  0  0
 14 11  1  0  0  0  0
 16 17  2  0  0  0  0
 18 20  1  0  0  0  0
 18 16  1  0  0  0  0
 19 18  1  0  0  0  0
 20 22  1  0  0  0  0
 20 21  1  0  0  0  0
 23 20  1  0  0  0  0
M  END
>  <REMARK>
  EXECUTING CHARMM SCRIPT FROM PYTHON                                           
   DATE:    12/ 8/23     14:57:23      CREATED BY USER: himmelreich             

$$$$
