cys-49916cb0-72f7-4f9d-b847-a33178db5018-min.pdb
 OpenBabel12122316093D

 23 22  0  0  1  0  0  0  0  0999 V2000
   -3.7130   -0.1770   -0.0230 C   0  0  0  0  0  0  0  0  0  0  0  0
   -4.0730    0.5760    0.7100 H   0  0  0  0  0  0  0  0  0  0  0  0
   -3.6090   -1.1620    0.4800 H   0  0  0  0  0  0  0  0  0  0  0  0
   -4.4600   -0.2660   -0.8400 H   0  0  0  0  0  0  0  0  0  0  0  0
   -2.4160    0.2540   -0.5920 C   0  0  0  0  0  0  0  0  0  0  0  0
   -2.3570    0.8330   -1.6670 O   0  0  0  0  0  0  0  0  0  0  0  0
   -1.3270   -0.0200    0.1290 N   0  0  0  0  0  0  0  0  0  0  0  0
   -1.3800   -0.5230    0.9880 H   0  0  0  0  0  0  0  0  0  0  0  0
    0.0110    0.2890   -0.3240 C   0  0  1  0  0  0  0  0  0  0  0  0
    0.0720    0.1360   -1.3930 H   0  0  0  0  0  0  0  0  0  0  0  0
    0.4050    1.7510    0.0450 C   0  0  0  0  0  0  0  0  0  0  0  0
   -0.4120    2.4030   -0.3400 H   0  0  0  0  0  0  0  0  0  0  0  0
    0.4020    1.8550    1.1530 H   0  0  0  0  0  0  0  0  0  0  0  0
    1.9950    2.3240   -0.6570 S   0  0  0  0  0  0  0  0  0  0  0  0
    1.8960    3.5710   -0.2140 H   0  0  0  0  0  0  0  0  0  0  0  0
    0.9140   -0.7280    0.3490 C   0  0  0  0  0  0  0  0  0  0  0  0
    0.5160   -1.3550    1.3300 O   0  0  0  0  0  0  0  0  0  0  0  0
    2.1370   -0.9390   -0.1730 N   0  0  0  0  0  0  0  0  0  0  0  0
    2.4450   -0.3940   -0.9480 H   0  0  0  0  0  0  0  0  0  0  0  0
    3.0510   -1.9090    0.3830 C   0  0  0  0  0  0  0  0  0  0  0  0
    2.5410   -2.8830    0.5620 H   0  0  0  0  0  0  0  0  0  0  0  0
    3.9020   -2.0870   -0.3110 H   0  0  0  0  0  0  0  0  0  0  0  0
    3.4590   -1.5470    1.3540 H   0  0  0  0  0  0  0  0  0  0  0  0
  1  3  1  0  0  0  0
  1  2  1  0  0  0  0
  4  1  1  0  0  0  0
  5  1  1  0  0  0  0
  5  7  1  0  0  0  0
  6  5  2  0  0  0  0
  7  8  1  0  0  0  0
  9 10  1  6  0  0  0
  9 11  1  0  0  0  0
  9  7  1  0  0  0  0
  9 16  1  0  0  0  0
 11 13  1  0  0  0  0
 12 11  1  0  0  0  0
 14 15  1  0  0  0  0
 14 11  1  0  0  0  0
 16 17  2  0  0  0  0
 18 16  1  0  0  0  0
 18 20  1  0  0  0  0
 19 18  1  0  0  0  0
 20 21  1  0  0  0  0
 20 23  1  0  0  0  0
 22 20  1  0  0  0  0
M  END
>  <REMARK>
  EXECUTING CHARMM SCRIPT FROM PYTHON                                           
   DATE:    12/ 8/23     14:57:22      CREATED BY USER: himmelreich             

$$$$
