gln-2fc9d5be-bb9c-4bbe-9d67-0f5dcff9cf4f-end.pdb
 OpenBabel12122316093D

 29 28  0  0  1  0  0  0  0  0999 V2000
   -3.4970   -0.7400   -1.6890 C   0  0  0  0  0  0  0  0  0  0  0  0
   -4.1870   -0.0150   -1.0870 H   0  0  0  0  0  0  0  0  0  0  0  0
   -3.8960   -1.7740   -1.5520 H   0  0  0  0  0  0  0  0  0  0  0  0
   -3.4220   -0.4480   -2.7390 H   0  0  0  0  0  0  0  0  0  0  0  0
   -2.0370   -0.6830   -1.1780 C   0  0  0  0  0  0  0  0  0  0  0  0
   -1.2220   -1.5320   -1.5210 O   0  0  0  0  0  0  0  0  0  0  0  0
   -1.5700    0.2910   -0.3270 N   0  0  0  0  0  0  0  0  0  0  0  0
   -2.2950    0.9100   -0.1110 H   0  0  0  0  0  0  0  0  0  0  0  0
   -0.2720    0.1400    0.3800 C   0  0  1  0  0  0  0  0  0  0  0  0
    0.2250   -0.7070    0.0920 H   0  0  0  0  0  0  0  0  0  0  0  0
    0.7040    1.3110    0.1420 C   0  0  0  0  0  0  0  0  0  0  0  0
    0.0470    2.2050    0.3310 H   0  0  0  0  0  0  0  0  0  0  0  0
    1.6020    1.3120    0.8600 H   0  0  0  0  0  0  0  0  0  0  0  0
    1.3490    1.5740   -1.3040 C   0  0  0  0  0  0  0  0  0  0  0  0
    0.5370    1.5900   -2.0710 H   0  0  0  0  0  0  0  0  0  0  0  0
    1.9030    2.5230   -1.2220 H   0  0  0  0  0  0  0  0  0  0  0  0
    2.3690    0.6410   -1.8920 C   0  0  0  0  0  0  0  0  0  0  0  0
    3.5770    0.9810   -1.8950 O   0  0  0  0  0  0  0  0  0  0  0  0
    1.9320   -0.4880   -2.4760 N   0  0  0  0  0  0  0  0  0  0  0  0
    2.6530   -1.1350   -2.7060 H   0  0  0  0  0  0  0  0  0  0  0  0
    0.9670   -0.7010   -2.3830 H   0  0  0  0  0  0  0  0  0  0  0  0
   -0.3460   -0.0460    1.9270 C   0  0  0  0  0  0  0  0  0  0  0  0
   -1.3870    0.1700    2.5550 O   0  0  0  0  0  0  0  0  0  0  0  0
    0.8430   -0.4360    2.4110 N   0  0  0  0  0  0  0  0  0  0  0  0
    1.5240   -0.7740    1.8010 H   0  0  0  0  0  0  0  0  0  0  0  0
    1.3580   -0.2450    3.7420 C   0  0  0  0  0  0  0  0  0  0  0  0
    2.2020   -0.9390    3.8230 H   0  0  0  0  0  0  0  0  0  0  0  0
    1.6390    0.8400    3.9270 H   0  0  0  0  0  0  0  0  0  0  0  0
    0.6060   -0.6010    4.5160 H   0  0  0  0  0  0  0  0  0  0  0  0
  1  3  1  0  0  0  0
  1  5  1  0  0  0  0
  1  2  1  0  0  0  0
  4  1  1  0  0  0  0
  5  7  1  0  0  0  0
  6  5  2  0  0  0  0
  7  8  1  0  0  0  0
  7  9  1  0  0  0  0
  9 10  1  6  0  0  0
  9 22  1  0  0  0  0
 11 12  1  0  0  0  0
 11  9  1  0  0  0  0
 11 13  1  0  0  0  0
 14 16  1  0  0  0  0
 14 11  1  0  0  0  0
 15 14  1  0  0  0  0
 17 14  1  0  0  0  0
 18 17  2  0  0  0  0
 19 21  1  0  0  0  0
 19 17  1  0  0  0  0
 20 19  1  0  0  0  0
 22 24  1  0  0  0  0
 22 23  2  0  0  0  0
 24 26  1  0  0  0  0
 25 24  1  0  0  0  0
 26 27  1  0  0  0  0
 26 28  1  0  0  0  0
 26 29  1  0  0  0  0
M  END
>  <REMARK>
  EXECUTING CHARMM SCRIPT FROM PYTHON                                           
   DATE:    12/ 8/23     14:57:26      CREATED BY USER: himmelreich             

$$$$
