gln-2fc9d5be-bb9c-4bbe-9d67-0f5dcff9cf4f.pdb
 OpenBabel12122316093D

 29 28  0  0  1  0  0  0  0  0999 V2000
   -3.9960    1.2540   -0.0940 C   0  0  0  0  0  0  0  0  0  0  0  0
   -3.7640    2.2090    0.4220 H   0  0  0  0  0  0  0  0  0  0  0  0
   -4.4480    0.5440    0.6320 H   0  0  0  0  0  0  0  0  0  0  0  0
   -4.7290    1.4500   -0.9060 H   0  0  0  0  0  0  0  0  0  0  0  0
   -2.7670    0.6700   -0.6760 C   0  0  0  0  0  0  0  0  0  0  0  0
   -2.7430    0.2560   -1.8270 O   0  0  0  0  0  0  0  0  0  0  0  0
   -1.7000    0.6200    0.1270 N   0  0  0  0  0  0  0  0  0  0  0  0
   -1.7800    0.9060    1.0750 H   0  0  0  0  0  0  0  0  0  0  0  0
   -0.4380    0.0260   -0.2620 C   0  0  1  0  0  0  0  0  0  0  0  0
   -0.4430   -0.2080   -1.3190 H   0  0  0  0  0  0  0  0  0  0  0  0
    0.7460    0.9890    0.0220 C   0  0  0  0  0  0  0  0  0  0  0  0
    0.5490    1.9230   -0.5510 H   0  0  0  0  0  0  0  0  0  0  0  0
    0.7380    1.2380    1.1070 H   0  0  0  0  0  0  0  0  0  0  0  0
    2.1390    0.4290   -0.3740 C   0  0  0  0  0  0  0  0  0  0  0  0
    2.3970   -0.4550    0.2470 H   0  0  0  0  0  0  0  0  0  0  0  0
    2.1240    0.1090   -1.4390 H   0  0  0  0  0  0  0  0  0  0  0  0
    3.3030    1.4210   -0.2350 C   0  0  0  0  0  0  0  0  0  0  0  0
    4.3790    1.2060   -0.7870 O   0  0  0  0  0  0  0  0  0  0  0  0
    3.1120    2.5270    0.5180 N   0  0  0  0  0  0  0  0  0  0  0  0
    3.8860    3.1480    0.5990 H   0  0  0  0  0  0  0  0  0  0  0  0
    2.2360    2.6740    0.9630 H   0  0  0  0  0  0  0  0  0  0  0  0
   -0.2460   -1.2740    0.4960 C   0  0  0  0  0  0  0  0  0  0  0  0
   -0.4180   -1.3230    1.7120 O   0  0  0  0  0  0  0  0  0  0  0  0
    0.1180   -2.3570   -0.2220 N   0  0  0  0  0  0  0  0  0  0  0  0
    0.2170   -2.2840   -1.2100 H   0  0  0  0  0  0  0  0  0  0  0  0
    0.3370   -3.6570    0.3760 C   0  0  0  0  0  0  0  0  0  0  0  0
   -0.6010   -4.2580    0.3500 H   0  0  0  0  0  0  0  0  0  0  0  0
    1.1230   -4.2120   -0.1820 H   0  0  0  0  0  0  0  0  0  0  0  0
    0.6670   -3.5730    1.4380 H   0  0  0  0  0  0  0  0  0  0  0  0
  1  2  1  0  0  0  0
  1  3  1  0  0  0  0
  4  1  1  0  0  0  0
  5  1  1  0  0  0  0
  5  7  1  0  0  0  0
  6  5  2  0  0  0  0
  7  8  1  0  0  0  0
  9 10  1  6  0  0  0
  9 11  1  0  0  0  0
  9  7  1  0  0  0  0
  9 22  1  0  0  0  0
 11 13  1  0  0  0  0
 12 11  1  0  0  0  0
 14 17  1  0  0  0  0
 14 11  1  0  0  0  0
 14 15  1  0  0  0  0
 16 14  1  0  0  0  0
 17 19  1  0  0  0  0
 18 17  2  0  0  0  0
 19 20  1  0  0  0  0
 19 21  1  0  0  0  0
 22 23  2  0  0  0  0
 24 26  1  0  0  0  0
 24 22  1  0  0  0  0
 25 24  1  0  0  0  0
 26 29  1  0  0  0  0
 27 26  1  0  0  0  0
 28 26  1  0  0  0  0
M  END
>  <REMARK>
  EXECUTING CHARMM SCRIPT FROM PYTHON                                           
   DATE:    12/ 8/23     14:57:25      CREATED BY USER: himmelreich             

$$$$
