glu-ed7ce7e2-e36f-40ed-a773-c9621cbed07c-end.pdb
 OpenBabel12122316093D

 27 26  0  0  1  0  0  0  0  0999 V2000
   -4.1260    0.1560   -0.0120 C   0  0  0  0  0  0  0  0  0  0  0  0
   -4.4910   -0.0590    1.0080 H   0  0  0  0  0  0  0  0  0  0  0  0
   -4.8420   -0.2630   -0.7550 H   0  0  0  0  0  0  0  0  0  0  0  0
   -4.1590    1.2440   -0.1540 H   0  0  0  0  0  0  0  0  0  0  0  0
   -2.7460   -0.1600   -0.2530 C   0  0  0  0  0  0  0  0  0  0  0  0
   -2.4940   -1.0710   -0.9930 O   0  0  0  0  0  0  0  0  0  0  0  0
   -1.7560    0.6280    0.2070 N   0  0  0  0  0  0  0  0  0  0  0  0
   -1.9070    1.4520    0.7440 H   0  0  0  0  0  0  0  0  0  0  0  0
   -0.3490    0.4190   -0.1600 C   0  0  1  0  0  0  0  0  0  0  0  0
   -0.2730   -0.2140   -1.1170 H   0  0  0  0  0  0  0  0  0  0  0  0
    0.3570    1.8130   -0.5720 C   0  0  0  0  0  0  0  0  0  0  0  0
   -0.5330    2.3340   -1.0200 H   0  0  0  0  0  0  0  0  0  0  0  0
    0.5850    2.3380    0.4270 H   0  0  0  0  0  0  0  0  0  0  0  0
    1.4900    1.7770   -1.6160 C   0  0  0  0  0  0  0  0  0  0  0  0
    1.0580    1.2720   -2.5230 H   0  0  0  0  0  0  0  0  0  0  0  0
    1.7450    2.8150   -1.8770 H   0  0  0  0  0  0  0  0  0  0  0  0
    2.7020    1.2090   -1.1190 C   0  0  0  0  0  0  0  0  0  0  0  0
    3.2020    1.7610   -0.0820 O   0  0  0  0  0  0  0  0  0  0  0  0
    3.2100    0.1750   -1.6900 O   0  0  0  0  0  0  0  0  0  0  0  0
    0.2570   -0.4280    0.9110 C   0  0  0  0  0  0  0  0  0  0  0  0
   -0.4280   -1.2180    1.5590 O   0  0  0  0  0  0  0  0  0  0  0  0
    1.4990   -0.2240    1.2620 N   0  0  0  0  0  0  0  0  0  0  0  0
    2.1130    0.3460    0.6820 H   0  0  0  0  0  0  0  0  0  0  0  0
    2.2810   -0.9940    2.2370 C   0  0  0  0  0  0  0  0  0  0  0  0
    1.9000   -0.7260    3.2260 H   0  0  0  0  0  0  0  0  0  0  0  0
    2.0920   -2.1120    2.2190 H   0  0  0  0  0  0  0  0  0  0  0  0
    3.4030   -0.6460    2.1510 H   0  0  0  0  0  0  0  0  0  0  0  0
  1  2  1  0  0  0  0
  3  1  1  0  0  0  0
  4  1  1  0  0  0  0
  5  1  1  0  0  0  0
  5  7  1  0  0  0  0
  6  5  2  0  0  0  0
  7  8  1  0  0  0  0
  9 10  1  6  0  0  0
  9  7  1  0  0  0  0
  9 20  1  0  0  0  0
 11  9  1  0  0  0  0
 11 13  1  0  0  0  0
 12 11  1  0  0  0  0
 14 17  1  0  0  0  0
 14 11  1  0  0  0  0
 15 14  1  0  0  0  0
 16 14  1  0  0  0  0
 17 18  1  0  0  0  0
 19 17  2  0  0  0  0
 20 22  1  0  0  0  0
 20 21  2  0  0  0  0
 22 24  1  0  0  0  0
 23 22  1  0  0  0  0
 24 25  1  0  0  0  0
 26 24  1  0  0  0  0
 27 24  1  0  0  0  0
M  END
>  <REMARK>
  EXECUTING CHARMM SCRIPT FROM PYTHON                                           
   DATE:    12/ 8/23     14:57:28      CREATED BY USER: himmelreich             

$$$$
