glu-ed7ce7e2-e36f-40ed-a773-c9621cbed07c.pdb
 OpenBabel12122316093D

 27 26  0  0  1  0  0  0  0  0999 V2000
   -4.0440    0.6930    0.0000 C   0  0  0  0  0  0  0  0  0  0  0  0
   -3.9240    1.6260    0.5910 H   0  0  0  0  0  0  0  0  0  0  0  0
   -4.4260   -0.1140    0.6610 H   0  0  0  0  0  0  0  0  0  0  0  0
   -4.7770    0.8720   -0.8150 H   0  0  0  0  0  0  0  0  0  0  0  0
   -2.7470    0.2830   -0.5850 C   0  0  0  0  0  0  0  0  0  0  0  0
   -2.6970   -0.2750   -1.6740 O   0  0  0  0  0  0  0  0  0  0  0  0
   -1.6610    0.5550    0.1440 N   0  0  0  0  0  0  0  0  0  0  0  0
   -1.7430    0.9980    1.0280 H   0  0  0  0  0  0  0  0  0  0  0  0
   -0.3150    0.1820   -0.2380 C   0  0  1  0  0  0  0  0  0  0  0  0
   -0.2630    0.0850   -1.3140 H   0  0  0  0  0  0  0  0  0  0  0  0
    0.6740    1.2940    0.1920 C   0  0  0  0  0  0  0  0  0  0  0  0
    0.3240    2.2420   -0.2800 H   0  0  0  0  0  0  0  0  0  0  0  0
    0.6180    1.4450    1.2930 H   0  0  0  0  0  0  0  0  0  0  0  0
    2.1560    1.0810   -0.2070 C   0  0  0  0  0  0  0  0  0  0  0  0
    2.6040    0.2360    0.3530 H   0  0  0  0  0  0  0  0  0  0  0  0
    2.2370    0.8850   -1.2960 H   0  0  0  0  0  0  0  0  0  0  0  0
    3.0320    2.3020    0.0840 C   0  0  0  0  0  0  0  0  0  0  0  0
    4.2420    2.2150   -0.2410 O   0  0  0  0  0  0  0  0  0  0  0  0
    2.5080    3.3110    0.6210 O   0  0  0  0  0  0  0  0  0  0  0  0
    0.0530   -1.1740    0.3570 C   0  0  0  0  0  0  0  0  0  0  0  0
   -0.5470   -1.6350    1.3300 O   0  0  0  0  0  0  0  0  0  0  0  0
    1.0410   -1.8710   -0.2390 N   0  0  0  0  0  0  0  0  0  0  0  0
    1.5400   -1.4530   -0.9930 H   0  0  0  0  0  0  0  0  0  0  0  0
    1.4460   -3.1800    0.2150 C   0  0  0  0  0  0  0  0  0  0  0  0
    0.6810   -3.9400   -0.0610 H   0  0  0  0  0  0  0  0  0  0  0  0
    2.4160   -3.4680   -0.2460 H   0  0  0  0  0  0  0  0  0  0  0  0
    1.5710   -3.1960    1.3220 H   0  0  0  0  0  0  0  0  0  0  0  0
  1  2  1  0  0  0  0
  1  3  1  0  0  0  0
  4  1  1  0  0  0  0
  5  1  1  0  0  0  0
  5  7  1  0  0  0  0
  6  5  2  0  0  0  0
  7  8  1  0  0  0  0
  9 10  1  6  0  0  0
  9  7  1  0  0  0  0
  9 11  1  0  0  0  0
  9 20  1  0  0  0  0
 11 13  1  0  0  0  0
 12 11  1  0  0  0  0
 14 17  1  0  0  0  0
 14 11  1  0  0  0  0
 14 15  1  0  0  0  0
 16 14  1  0  0  0  0
 17 19  1  0  0  0  0
 18 17  2  0  0  0  0
 20 21  2  0  0  0  0
 22 24  1  0  0  0  0
 22 20  1  0  0  0  0
 23 22  1  0  0  0  0
 24 27  1  0  0  0  0
 25 24  1  0  0  0  0
 26 24  1  0  0  0  0
M  END
>  <REMARK>
  EXECUTING CHARMM SCRIPT FROM PYTHON                                           
   DATE:    12/ 8/23     14:57:28      CREATED BY USER: himmelreich             

$$$$
