gly-70150091-70a0-453f-b6b8-c5389f387e84-end.pdb
 OpenBabel12122316093D

 19 18  0  0  0  0  0  0  0  0999 V2000
   -3.3870   -0.4120   -0.0180 C   0  0  0  0  0  0  0  0  0  0  0  0
   -3.3550   -1.4590   -0.4510 H   0  0  0  0  0  0  0  0  0  0  0  0
   -3.7660    0.1680   -0.8120 H   0  0  0  0  0  0  0  0  0  0  0  0
   -4.0930   -0.4210    0.8830 H   0  0  0  0  0  0  0  0  0  0  0  0
   -2.0050   -0.1110    0.3390 C   0  0  0  0  0  0  0  0  0  0  0  0
   -1.4210   -0.8330    1.1820 O   0  0  0  0  0  0  0  0  0  0  0  0
   -1.3960    0.8460   -0.3710 N   0  0  0  0  0  0  0  0  0  0  0  0
   -1.8300    1.3150   -1.1680 H   0  0  0  0  0  0  0  0  0  0  0  0
   -0.1540    1.4490   -0.0580 C   0  0  0  0  0  0  0  0  0  0  0  0
   -0.0490    1.5680    1.0080 H   0  0  0  0  0  0  0  0  0  0  0  0
   -0.1360    2.4010   -0.5650 H   0  0  0  0  0  0  0  0  0  0  0  0
    1.0600    0.6250   -0.4120 C   0  0  0  0  0  0  0  0  0  0  0  0
    1.7580    1.0730   -1.3570 O   0  0  0  0  0  0  0  0  0  0  0  0
    1.4510   -0.4050    0.3800 N   0  0  0  0  0  0  0  0  0  0  0  0
    0.8450   -0.6930    1.0910 H   0  0  0  0  0  0  0  0  0  0  0  0
    2.6290   -1.0780    0.0090 C   0  0  0  0  0  0  0  0  0  0  0  0
    2.7320   -1.9610    0.6910 H   0  0  0  0  0  0  0  0  0  0  0  0
    2.7170   -1.4500   -0.9690 H   0  0  0  0  0  0  0  0  0  0  0  0
    3.5030   -0.4280    0.0800 H   0  0  0  0  0  0  0  0  0  0  0  0
  1  5  1  0  0  0  0
  1  4  1  0  0  0  0
  2  1  1  0  0  0  0
  3  1  1  0  0  0  0
  5  6  2  0  0  0  0
  7  9  1  0  0  0  0
  7  5  1  0  0  0  0
  8  7  1  0  0  0  0
  9 10  1  0  0  0  0
 11  9  1  0  0  0  0
 12  9  1  0  0  0  0
 12 14  1  0  0  0  0
 13 12  2  0  0  0  0
 14 15  1  0  0  0  0
 16 19  1  0  0  0  0
 16 14  1  0  0  0  0
 16 17  1  0  0  0  0
 18 16  1  0  0  0  0
M  END
>  <REMARK>
  EXECUTING CHARMM SCRIPT FROM PYTHON                                           
   DATE:    12/ 8/23     14:57:31      CREATED BY USER: himmelreich             

$$$$
