gly-70150091-70a0-453f-b6b8-c5389f387e84.pdb
 OpenBabel12122316093D

 19 18  0  0  0  0  0  0  0  0999 V2000
   -3.5240   -0.4210   -0.0300 C   0  0  0  0  0  0  0  0  0  0  0  0
   -3.9570    0.1170    0.8400 H   0  0  0  0  0  0  0  0  0  0  0  0
   -3.2270   -1.4450    0.2800 H   0  0  0  0  0  0  0  0  0  0  0  0
   -4.2960   -0.4960   -0.8260 H   0  0  0  0  0  0  0  0  0  0  0  0
   -2.3510    0.3180   -0.5490 C   0  0  0  0  0  0  0  0  0  0  0  0
   -2.4240    0.9950   -1.5660 O   0  0  0  0  0  0  0  0  0  0  0  0
   -1.2160    0.1980    0.1460 N   0  0  0  0  0  0  0  0  0  0  0  0
   -1.1710   -0.3570    0.9740 H   0  0  0  0  0  0  0  0  0  0  0  0
    0.0260    0.8270   -0.2640 C   0  0  0  0  0  0  0  0  0  0  0  0
    0.0260    1.8440    0.0990 H   0  0  0  0  0  0  0  0  0  0  0  0
    0.1400    0.7360   -1.3350 H   0  0  0  0  0  0  0  0  0  0  0  0
    1.1610    0.0990    0.3870 C   0  0  0  0  0  0  0  0  0  0  0  0
    0.9840   -0.5350    1.4230 O   0  0  0  0  0  0  0  0  0  0  0  0
    2.3640    0.1630   -0.2140 N   0  0  0  0  0  0  0  0  0  0  0  0
    2.4810    0.6830   -1.0540 H   0  0  0  0  0  0  0  0  0  0  0  0
    3.5120   -0.5370    0.3140 C   0  0  0  0  0  0  0  0  0  0  0  0
    3.3370   -1.6380    0.3100 H   0  0  0  0  0  0  0  0  0  0  0  0
    4.4150   -0.3260   -0.2990 H   0  0  0  0  0  0  0  0  0  0  0  0
    3.7200   -0.2240    1.3630 H   0  0  0  0  0  0  0  0  0  0  0  0
  1  3  1  0  0  0  0
  1  2  1  0  0  0  0
  4  1  1  0  0  0  0
  5  1  1  0  0  0  0
  5  7  1  0  0  0  0
  6  5  2  0  0  0  0
  7  8  1  0  0  0  0
  9 10  1  0  0  0  0
  9  7  1  0  0  0  0
  9 12  1  0  0  0  0
 11  9  1  0  0  0  0
 12 13  2  0  0  0  0
 14 16  1  0  0  0  0
 14 12  1  0  0  0  0
 15 14  1  0  0  0  0
 16 19  1  0  0  0  0
 17 16  1  0  0  0  0
 18 16  1  0  0  0  0
M  END
>  <REMARK>
  EXECUTING CHARMM SCRIPT FROM PYTHON                                           
   DATE:    12/ 8/23     14:57:31      CREATED BY USER: himmelreich             

$$$$
