hsd-598e2bbd-63b4-4602-bfa3-11e54db7b1f5-end.pdb
 OpenBabel12122316093D

 29 29  0  0  1  0  0  0  0  0999 V2000
   -4.3660   -0.1940    0.0880 C   0  0  0  0  0  0  0  0  0  0  0  0
   -4.6590   -1.1610    0.4180 H   0  0  0  0  0  0  0  0  0  0  0  0
   -4.5270   -0.3100   -0.9480 H   0  0  0  0  0  0  0  0  0  0  0  0
   -5.0660    0.5800    0.5080 H   0  0  0  0  0  0  0  0  0  0  0  0
   -2.9910    0.2490    0.4450 C   0  0  0  0  0  0  0  0  0  0  0  0
   -2.8320    1.0060    1.3620 O   0  0  0  0  0  0  0  0  0  0  0  0
   -1.9710   -0.3860   -0.1850 N   0  0  0  0  0  0  0  0  0  0  0  0
   -2.0770   -1.0080   -0.9580 H   0  0  0  0  0  0  0  0  0  0  0  0
   -0.6040    0.1050   -0.0270 C   0  0  1  0  0  0  0  0  0  0  0  0
   -0.6130    1.0560    0.5440 H   0  0  0  0  0  0  0  0  0  0  0  0
    0.2470   -0.9130    0.7400 C   0  0  0  0  0  0  0  0  0  0  0  0
   -0.2390   -1.2100    1.6870 H   0  0  0  0  0  0  0  0  0  0  0  0
    0.3400   -1.8500    0.1470 H   0  0  0  0  0  0  0  0  0  0  0  0
    1.8940    0.5830    1.8810 N   0  0  0  0  0  0  0  0  0  0  0  0
    1.1800    0.9490    2.4450 H   0  0  0  0  0  0  0  0  0  0  0  0
    1.6850   -0.5140    1.0660 C   0  0  0  0  0  0  0  0  0  0  0  0
    3.1860    0.9560    1.7710 C   0  0  0  0  0  0  0  0  0  0  0  0
    3.6850    1.6900    2.4320 H   0  0  0  0  0  0  0  0  0  0  0  0
    3.8300    0.1140    0.9780 N   0  0  0  0  0  0  0  0  0  0  0  0
    2.8930   -0.8150    0.5700 C   0  0  0  0  0  0  0  0  0  0  0  0
    3.0910   -1.6270   -0.1450 H   0  0  0  0  0  0  0  0  0  0  0  0
   -0.1770    0.2190   -1.4510 C   0  0  0  0  0  0  0  0  0  0  0  0
   -0.8730   -0.3210   -2.2990 O   0  0  0  0  0  0  0  0  0  0  0  0
    1.0120    0.8780   -1.7040 N   0  0  0  0  0  0  0  0  0  0  0  0
    1.5710    1.1520   -0.9160 H   0  0  0  0  0  0  0  0  0  0  0  0
    1.5940    0.7080   -3.0900 C   0  0  0  0  0  0  0  0  0  0  0  0
    2.3760    1.5040   -3.3170 H   0  0  0  0  0  0  0  0  0  0  0  0
    2.0640   -0.2710   -3.0860 H   0  0  0  0  0  0  0  0  0  0  0  0
    0.8160    0.7960   -3.9230 H   0  0  0  0  0  0  0  0  0  0  0  0
  1  2  1  0  0  0  0
  1  5  1  0  0  0  0
  1  4  1  0  0  0  0
  3  1  1  0  0  0  0
  5  6  2  0  0  0  0
  7  9  1  0  0  0  0
  7  5  1  0  0  0  0
  8  7  1  0  0  0  0
  9 10  1  1  0  0  0
  9 11  1  0  0  0  0
 11 16  1  0  0  0  0
 11 12  1  0  0  0  0
 13 11  1  0  0  0  0
 14 15  1  0  0  0  0
 16 14  1  0  0  0  0
 17 14  1  0  0  0  0
 17 18  1  0  0  0  0
 19 17  2  0  0  0  0
 20 19  1  0  0  0  0
 20 16  2  0  0  0  0
 21 20  1  0  0  0  0
 22  9  1  0  0  0  0
 23 22  2  0  0  0  0
 24 22  1  0  0  0  0
 24 25  1  0  0  0  0
 26 28  1  0  0  0  0
 26 24  1  0  0  0  0
 27 26  1  0  0  0  0
 29 26  1  0  0  0  0
M  END
>  <REMARK>
  EXECUTING CHARMM SCRIPT FROM PYTHON                                           
   DATE:    12/ 8/23     14:57:34      CREATED BY USER: himmelreich             

$$$$
