hsd-598e2bbd-63b4-4602-bfa3-11e54db7b1f5.pdb
 OpenBabel12122316093D

 29 29  0  0  1  0  0  0  0  0999 V2000
   -4.3290    0.9540   -0.1820 C   0  0  0  0  0  0  0  0  0  0  0  0
   -4.6020    1.6820    0.6130 H   0  0  0  0  0  0  0  0  0  0  0  0
   -4.6180   -0.0670    0.1410 H   0  0  0  0  0  0  0  0  0  0  0  0
   -4.8880    1.2120   -1.1070 H   0  0  0  0  0  0  0  0  0  0  0  0
   -2.8750    1.0310   -0.4530 C   0  0  0  0  0  0  0  0  0  0  0  0
   -2.4040    1.9300   -1.1360 O   0  0  0  0  0  0  0  0  0  0  0  0
   -2.1090    0.0770    0.0810 N   0  0  0  0  0  0  0  0  0  0  0  0
   -2.4950   -0.6750    0.6120 H   0  0  0  0  0  0  0  0  0  0  0  0
   -0.6870    0.0020   -0.1650 C   0  0  1  0  0  0  0  0  0  0  0  0
   -0.5040    0.1920   -1.2140 H   0  0  0  0  0  0  0  0  0  0  0  0
    0.1120    1.0030    0.7130 C   0  0  0  0  0  0  0  0  0  0  0  0
   -0.3120    2.0200    0.5650 H   0  0  0  0  0  0  0  0  0  0  0  0
   -0.0190    0.7450    1.7870 H   0  0  0  0  0  0  0  0  0  0  0  0
    2.0730    1.6200   -0.7770 N   0  0  0  0  0  0  0  0  0  0  0  0
    1.5380    2.0770   -1.4870 H   0  0  0  0  0  0  0  0  0  0  0  0
    1.5770    1.0620    0.3840 C   0  0  0  0  0  0  0  0  0  0  0  0
    3.4230    1.5230   -0.7160 C   0  0  0  0  0  0  0  0  0  0  0  0
    4.0920    1.9000   -1.4920 H   0  0  0  0  0  0  0  0  0  0  0  0
    3.8220    0.9440    0.3970 N   0  0  0  0  0  0  0  0  0  0  0  0
    2.6640    0.6670    1.1000 C   0  0  0  0  0  0  0  0  0  0  0  0
    2.7180    0.1970    2.0750 H   0  0  0  0  0  0  0  0  0  0  0  0
   -0.2560   -1.4240    0.1180 C   0  0  0  0  0  0  0  0  0  0  0  0
   -1.0510   -2.2210    0.6150 O   0  0  0  0  0  0  0  0  0  0  0  0
    1.0030   -1.7840   -0.1990 N   0  0  0  0  0  0  0  0  0  0  0  0
    1.6390   -1.1080   -0.5680 H   0  0  0  0  0  0  0  0  0  0  0  0
    1.5140   -3.1170    0.0270 C   0  0  0  0  0  0  0  0  0  0  0  0
    0.7400   -3.8940   -0.1720 H   0  0  0  0  0  0  0  0  0  0  0  0
    2.3810   -3.3180   -0.6400 H   0  0  0  0  0  0  0  0  0  0  0  0
    1.8530   -3.2290    1.0820 H   0  0  0  0  0  0  0  0  0  0  0  0
  1  3  1  0  0  0  0
  1  2  1  0  0  0  0
  4  1  1  0  0  0  0
  5  1  1  0  0  0  0
  5  7  1  0  0  0  0
  6  5  2  0  0  0  0
  7  8  1  0  0  0  0
  9 10  1  6  0  0  0
  9  7  1  0  0  0  0
  9 22  1  0  0  0  0
  9 11  1  0  0  0  0
 11 13  1  0  0  0  0
 12 11  1  0  0  0  0
 14 17  1  0  0  0  0
 14 16  1  0  0  0  0
 15 14  1  0  0  0  0
 16 11  1  0  0  0  0
 16 20  2  0  0  0  0
 17 19  2  0  0  0  0
 18 17  1  0  0  0  0
 19 20  1  0  0  0  0
 20 21  1  0  0  0  0
 22 23  2  0  0  0  0
 24 26  1  0  0  0  0
 24 22  1  0  0  0  0
 25 24  1  0  0  0  0
 26 29  1  0  0  0  0
 27 26  1  0  0  0  0
 28 26  1  0  0  0  0
M  END
>  <REMARK>
  EXECUTING CHARMM SCRIPT FROM PYTHON                                           
   DATE:    12/ 8/23     14:57:33      CREATED BY USER: himmelreich             

$$$$
