hse-13b9a07c-da9b-4c22-9db3-a37472cfd324-end.pdb
 OpenBabel12122316093D

 29 29  0  0  1  0  0  0  0  0999 V2000
   -4.1940    1.3200   -0.0140 C   0  0  0  0  0  0  0  0  0  0  0  0
   -4.7150    0.5230   -0.5870 H   0  0  0  0  0  0  0  0  0  0  0  0
   -4.3730    2.1660   -0.6530 H   0  0  0  0  0  0  0  0  0  0  0  0
   -4.6290    1.4850    0.9850 H   0  0  0  0  0  0  0  0  0  0  0  0
   -2.6780    1.2290    0.0730 C   0  0  0  0  0  0  0  0  0  0  0  0
   -2.0200    2.1730   -0.2300 O   0  0  0  0  0  0  0  0  0  0  0  0
   -2.1270    0.0750    0.3790 N   0  0  0  0  0  0  0  0  0  0  0  0
   -2.6530   -0.7520    0.5280 H   0  0  0  0  0  0  0  0  0  0  0  0
   -0.7090   -0.1890    0.1180 C   0  0  1  0  0  0  0  0  0  0  0  0
   -0.3130    0.4190   -0.7100 H   0  0  0  0  0  0  0  0  0  0  0  0
    0.2630    0.1470    1.1940 C   0  0  0  0  0  0  0  0  0  0  0  0
   -0.2440    0.7070    1.9650 H   0  0  0  0  0  0  0  0  0  0  0  0
    0.6920   -0.7330    1.7340 H   0  0  0  0  0  0  0  0  0  0  0  0
    2.5500    0.0140    0.2340 N   0  0  0  0  0  0  0  0  0  0  0  0
    1.5420    0.8110    0.7090 C   0  0  0  0  0  0  0  0  0  0  0  0
    3.4740    0.8330   -0.2030 C   0  0  0  0  0  0  0  0  0  0  0  0
    4.1280    0.4920   -0.9520 H   0  0  0  0  0  0  0  0  0  0  0  0
    3.1020    2.0650   -0.0170 N   0  0  0  0  0  0  0  0  0  0  0  0
    3.7260    2.8510   -0.0100 H   0  0  0  0  0  0  0  0  0  0  0  0
    1.8820    2.0890    0.6140 C   0  0  0  0  0  0  0  0  0  0  0  0
    1.2450    2.9650    0.8030 H   0  0  0  0  0  0  0  0  0  0  0  0
   -0.5380   -1.5410   -0.4790 C   0  0  0  0  0  0  0  0  0  0  0  0
   -1.4540   -2.4370   -0.5420 O   0  0  0  0  0  0  0  0  0  0  0  0
    0.6720   -1.7660   -1.0460 N   0  0  0  0  0  0  0  0  0  0  0  0
    1.3900   -1.1190   -0.7730 H   0  0  0  0  0  0  0  0  0  0  0  0
    1.0730   -2.8890   -1.8260 C   0  0  0  0  0  0  0  0  0  0  0  0
    0.9410   -2.5700   -2.8620 H   0  0  0  0  0  0  0  0  0  0  0  0
    2.2170   -3.0560   -1.7030 H   0  0  0  0  0  0  0  0  0  0  0  0
    0.5660   -3.8500   -1.6760 H   0  0  0  0  0  0  0  0  0  0  0  0
  1  5  1  0  0  0  0
  1  4  1  0  0  0  0
  2  1  1  0  0  0  0
  3  1  1  0  0  0  0
  5  7  1  0  0  0  0
  6  5  2  0  0  0  0
  7  8  1  0  0  0  0
  9 10  1  6  0  0  0
  9  7  1  0  0  0  0
  9 11  1  0  0  0  0
 11 13  1  0  0  0  0
 11 12  1  0  0  0  0
 14 15  1  0  0  0  0
 15 11  1  0  0  0  0
 16 18  1  0  0  0  0
 16 14  2  0  0  0  0
 17 16  1  0  0  0  0
 18 19  1  0  0  0  0
 18 20  1  0  0  0  0
 20 15  2  0  0  0  0
 20 21  1  0  0  0  0
 22  9  1  0  0  0  0
 23 22  2  0  0  0  0
 24 25  1  0  0  0  0
 24 22  1  0  0  0  0
 26 28  1  0  0  0  0
 26 29  1  0  0  0  0
 26 24  1  0  0  0  0
 27 26  1  0  0  0  0
M  END
>  <REMARK>
  EXECUTING CHARMM SCRIPT FROM PYTHON                                           
   DATE:    12/ 8/23     14:57:37      CREATED BY USER: himmelreich             

$$$$
