hse-13b9a07c-da9b-4c22-9db3-a37472cfd324-min.pdb
 OpenBabel12122316093D

 29 29  0  0  1  0  0  0  0  0999 V2000
   -4.5210    0.7480   -0.0530 C   0  0  0  0  0  0  0  0  0  0  0  0
   -4.7250    1.5670    0.6680 H   0  0  0  0  0  0  0  0  0  0  0  0
   -4.7020   -0.2310    0.4380 H   0  0  0  0  0  0  0  0  0  0  0  0
   -5.2210    0.8500   -0.9100 H   0  0  0  0  0  0  0  0  0  0  0  0
   -3.1300    0.8440   -0.5480 C   0  0  0  0  0  0  0  0  0  0  0  0
   -2.8720    1.4130   -1.6060 O   0  0  0  0  0  0  0  0  0  0  0  0
   -2.1890    0.2790    0.2210 N   0  0  0  0  0  0  0  0  0  0  0  0
   -2.4470   -0.2230    1.0460 H   0  0  0  0  0  0  0  0  0  0  0  0
   -0.7960    0.1850   -0.1750 C   0  0  1  0  0  0  0  0  0  0  0  0
   -0.7050    0.3370   -1.2450 H   0  0  0  0  0  0  0  0  0  0  0  0
    0.0900    1.2420    0.5440 C   0  0  0  0  0  0  0  0  0  0  0  0
   -0.2580    2.2410    0.2030 H   0  0  0  0  0  0  0  0  0  0  0  0
   -0.0830    1.1710    1.6390 H   0  0  0  0  0  0  0  0  0  0  0  0
    2.0460    0.9570   -1.0020 N   0  0  0  0  0  0  0  0  0  0  0  0
    1.5750    1.1580    0.2850 C   0  0  0  0  0  0  0  0  0  0  0  0
    3.3570    0.8810   -0.8890 C   0  0  0  0  0  0  0  0  0  0  0  0
    4.0490    0.7150   -1.7190 H   0  0  0  0  0  0  0  0  0  0  0  0
    3.7550    1.0200    0.4000 N   0  0  0  0  0  0  0  0  0  0  0  0
    4.6940    0.9910    0.7420 H   0  0  0  0  0  0  0  0  0  0  0  0
    2.6170    1.1990    1.1600 C   0  0  0  0  0  0  0  0  0  0  0  0
    2.6160    1.3370    2.2320 H   0  0  0  0  0  0  0  0  0  0  0  0
   -0.3250   -1.2290    0.1200 C   0  0  0  0  0  0  0  0  0  0  0  0
   -0.9940   -1.9760    0.8320 O   0  0  0  0  0  0  0  0  0  0  0  0
    0.8370   -1.6270   -0.4270 N   0  0  0  0  0  0  0  0  0  0  0  0
    1.3690   -0.9290   -0.9240 H   0  0  0  0  0  0  0  0  0  0  0  0
    1.3780   -2.9590   -0.2850 C   0  0  0  0  0  0  0  0  0  0  0  0
    0.6130   -3.7260   -0.5450 H   0  0  0  0  0  0  0  0  0  0  0  0
    2.2510   -3.1010   -0.9600 H   0  0  0  0  0  0  0  0  0  0  0  0
    1.7190   -3.1350    0.7610 H   0  0  0  0  0  0  0  0  0  0  0  0
  1  3  1  0  0  0  0
  1  2  1  0  0  0  0
  4  1  1  0  0  0  0
  5  1  1  0  0  0  0
  5  7  1  0  0  0  0
  6  5  2  0  0  0  0
  7  8  1  0  0  0  0
  9 10  1  6  0  0  0
  9 22  1  0  0  0  0
  9  7  1  0  0  0  0
  9 11  1  0  0  0  0
 11 13  1  0  0  0  0
 12 11  1  0  0  0  0
 14 16  2  0  0  0  0
 14 15  1  0  0  0  0
 15 11  1  0  0  0  0
 15 20  2  0  0  0  0
 16 18  1  0  0  0  0
 17 16  1  0  0  0  0
 18 19  1  0  0  0  0
 18 20  1  0  0  0  0
 20 21  1  0  0  0  0
 22 23  2  0  0  0  0
 24 26  1  0  0  0  0
 24 22  1  0  0  0  0
 25 24  1  0  0  0  0
 26 29  1  0  0  0  0
 27 26  1  0  0  0  0
 28 26  1  0  0  0  0
M  END
>  <REMARK>
  EXECUTING CHARMM SCRIPT FROM PYTHON                                           
   DATE:    12/ 8/23     14:57:36      CREATED BY USER: himmelreich             

$$$$
