hsp-ba4b39cf-3c9e-4993-8bf9-6d44017a9f0f-end.pdb
 OpenBabel12122316093D

 30 30  0  0  1  0  0  0  0  0999 V2000
   -4.0500    0.3210   -1.1820 C   0  0  0  0  0  0  0  0  0  0  0  0
   -4.7380    1.2060   -1.2620 H   0  0  0  0  0  0  0  0  0  0  0  0
   -4.3950   -0.1750   -0.2250 H   0  0  0  0  0  0  0  0  0  0  0  0
   -4.2310   -0.3080   -2.0970 H   0  0  0  0  0  0  0  0  0  0  0  0
   -2.5780    0.7050   -1.1090 C   0  0  0  0  0  0  0  0  0  0  0  0
   -2.0460    1.6130   -1.7280 O   0  0  0  0  0  0  0  0  0  0  0  0
   -1.8290   -0.0700   -0.4040 N   0  0  0  0  0  0  0  0  0  0  0  0
   -2.1850   -0.8840    0.0460 H   0  0  0  0  0  0  0  0  0  0  0  0
   -0.3760   -0.0010   -0.3500 C   0  0  1  0  0  0  0  0  0  0  0  0
    0.0480    0.2540   -1.2810 H   0  0  0  0  0  0  0  0  0  0  0  0
    0.0010    1.0450    0.6420 C   0  0  0  0  0  0  0  0  0  0  0  0
   -0.5270    1.9980    0.2870 H   0  0  0  0  0  0  0  0  0  0  0  0
   -0.4970    0.7330    1.6340 H   0  0  0  0  0  0  0  0  0  0  0  0
    2.4190    0.7930    1.5250 C   0  0  0  0  0  0  0  0  0  0  0  0
    2.2390   -0.0240    2.2220 H   0  0  0  0  0  0  0  0  0  0  0  0
    1.4550    1.3650    0.7840 C   0  0  0  0  0  0  0  0  0  0  0  0
    3.6070    1.3440    1.1910 N   0  0  0  0  0  0  0  0  0  0  0  0
    4.5060    0.9300    1.4390 H   0  0  0  0  0  0  0  0  0  0  0  0
    2.1420    2.3260   -0.0140 N   0  0  0  0  0  0  0  0  0  0  0  0
    1.7240    2.9590   -0.6600 H   0  0  0  0  0  0  0  0  0  0  0  0
    3.4510    2.2420    0.2410 C   0  0  0  0  0  0  0  0  0  0  0  0
    4.1420    2.8980   -0.1220 H   0  0  0  0  0  0  0  0  0  0  0  0
    0.1510   -1.3880    0.1550 C   0  0  0  0  0  0  0  0  0  0  0  0
    0.8040   -1.5160    1.2090 O   0  0  0  0  0  0  0  0  0  0  0  0
   -0.2190   -2.3940   -0.5400 N   0  0  0  0  0  0  0  0  0  0  0  0
   -0.7850   -2.3230   -1.3680 H   0  0  0  0  0  0  0  0  0  0  0  0
    0.2040   -3.7150   -0.4700 C   0  0  0  0  0  0  0  0  0  0  0  0
    0.0560   -3.9780    0.5940 H   0  0  0  0  0  0  0  0  0  0  0  0
   -0.2260   -4.4120   -1.1880 H   0  0  0  0  0  0  0  0  0  0  0  0
    1.2850   -3.7830   -0.6670 H   0  0  0  0  0  0  0  0  0  0  0  0
  1  5  1  0  0  0  0
  1  3  1  0  0  0  0
  2  1  1  0  0  0  0
  4  1  1  0  0  0  0
  5  7  1  0  0  0  0
  6  5  2  0  0  0  0
  7  9  1  0  0  0  0
  7  8  1  0  0  0  0
  9 10  1  6  0  0  0
  9 23  1  0  0  0  0
  9 11  1  0  0  0  0
 11 16  1  0  0  0  0
 11 13  1  0  0  0  0
 12 11  1  0  0  0  0
 14 15  1  0  0  0  0
 16 14  2  0  0  0  0
 17 18  1  0  0  0  0
 17 14  1  0  0  0  0
 19 21  1  0  0  0  0
 19 16  1  0  0  0  0
 20 19  1  0  0  0  0
 21 17  1  0  0  0  0
 22 21  1  0  0  0  0
 23 24  2  0  0  0  0
 25 27  1  0  0  0  0
 25 23  1  0  0  0  0
 26 25  1  0  0  0  0
 27 28  1  0  0  0  0
 29 27  1  0  0  0  0
 30 27  1  0  0  0  0
M  END
>  <REMARK>
  EXECUTING CHARMM SCRIPT FROM PYTHON                                           
   DATE:    12/ 8/23     14:57:40      CREATED BY USER: himmelreich             

$$$$
