hsp-ba4b39cf-3c9e-4993-8bf9-6d44017a9f0f.pdb
 OpenBabel12122316093D

 30 30  0  0  1  0  0  0  0  0999 V2000
   -4.2760    0.3020   -0.3220 C   0  0  0  0  0  0  0  0  0  0  0  0
   -4.4950    1.0070    0.5080 H   0  0  0  0  0  0  0  0  0  0  0  0
   -4.5180   -0.7320    0.0010 H   0  0  0  0  0  0  0  0  0  0  0  0
   -4.9230    0.5620   -1.1880 H   0  0  0  0  0  0  0  0  0  0  0  0
   -2.8550    0.3980   -0.7240 C   0  0  0  0  0  0  0  0  0  0  0  0
   -2.5280    0.6680   -1.8700 O   0  0  0  0  0  0  0  0  0  0  0  0
   -1.9410    0.1740    0.2270 N   0  0  0  0  0  0  0  0  0  0  0  0
   -2.2450   -0.0670    1.1440 H   0  0  0  0  0  0  0  0  0  0  0  0
   -0.5140    0.2340   -0.0420 C   0  0  1  0  0  0  0  0  0  0  0  0
   -0.3360    0.4950   -1.0780 H   0  0  0  0  0  0  0  0  0  0  0  0
    0.1880    1.2900    0.8540 C   0  0  0  0  0  0  0  0  0  0  0  0
   -0.2900    2.2770    0.6720 H   0  0  0  0  0  0  0  0  0  0  0  0
    0.0170    1.0340    1.9230 H   0  0  0  0  0  0  0  0  0  0  0  0
    2.7150    1.0560    1.4050 C   0  0  0  0  0  0  0  0  0  0  0  0
    2.6930    0.5740    2.3790 H   0  0  0  0  0  0  0  0  0  0  0  0
    1.6740    1.4190    0.6190 C   0  0  0  0  0  0  0  0  0  0  0  0
    3.8620    1.3520    0.7080 N   0  0  0  0  0  0  0  0  0  0  0  0
    4.7960    1.1620    1.0220 H   0  0  0  0  0  0  0  0  0  0  0  0
    2.2050    1.9260   -0.5390 N   0  0  0  0  0  0  0  0  0  0  0  0
    1.6790    2.2700   -1.3230 H   0  0  0  0  0  0  0  0  0  0  0  0
    3.5280    1.8760   -0.4640 C   0  0  0  0  0  0  0  0  0  0  0  0
    4.2180    2.2040   -1.2280 H   0  0  0  0  0  0  0  0  0  0  0  0
    0.1300   -1.1230    0.1660 C   0  0  0  0  0  0  0  0  0  0  0  0
    0.9960   -1.2770    1.0240 O   0  0  0  0  0  0  0  0  0  0  0  0
   -0.2730   -2.1290   -0.6310 N   0  0  0  0  0  0  0  0  0  0  0  0
   -0.9760   -1.9760   -1.3220 H   0  0  0  0  0  0  0  0  0  0  0  0
    0.2600   -3.4680   -0.5060 C   0  0  0  0  0  0  0  0  0  0  0  0
   -0.1800   -4.1370   -1.2790 H   0  0  0  0  0  0  0  0  0  0  0  0
    1.3670   -3.4720   -0.6310 H   0  0  0  0  0  0  0  0  0  0  0  0
    0.0230   -3.8970    0.4950 H   0  0  0  0  0  0  0  0  0  0  0  0
  1  3  1  0  0  0  0
  1  2  1  0  0  0  0
  4  1  1  0  0  0  0
  5  1  1  0  0  0  0
  5  7  1  0  0  0  0
  6  5  2  0  0  0  0
  7  8  1  0  0  0  0
  9 10  1  6  0  0  0
  9 23  1  0  0  0  0
  9  7  1  0  0  0  0
  9 11  1  0  0  0  0
 11 13  1  0  0  0  0
 12 11  1  0  0  0  0
 14 15  1  0  0  0  0
 16 11  1  0  0  0  0
 16 14  2  0  0  0  0
 17 18  1  0  0  0  0
 17 14  1  0  0  0  0
 19 21  1  0  0  0  0
 19 16  1  0  0  0  0
 20 19  1  0  0  0  0
 21 17  1  0  0  0  0
 22 21  1  0  0  0  0
 23 24  2  0  0  0  0
 25 27  1  0  0  0  0
 25 23  1  0  0  0  0
 26 25  1  0  0  0  0
 27 30  1  0  0  0  0
 28 27  1  0  0  0  0
 29 27  1  0  0  0  0
M  END
>  <REMARK>
  EXECUTING CHARMM SCRIPT FROM PYTHON                                           
   DATE:    12/ 8/23     14:57:39      CREATED BY USER: himmelreich             

$$$$
