ile-e199d44c-e03e-4ffd-8540-5d056b7bfba3-min.pdb
 OpenBabel12122316093D

 31 30  0  0  1  0  0  0  0  0999 V2000
   -4.0850    0.8050   -0.3570 C   0  0  0  0  0  0  0  0  0  0  0  0
   -3.9930    1.8200    0.0810 H   0  0  0  0  0  0  0  0  0  0  0  0
   -4.4700    0.1030    0.4130 H   0  0  0  0  0  0  0  0  0  0  0  0
   -4.8060    0.8390   -1.2020 H   0  0  0  0  0  0  0  0  0  0  0  0
   -2.7710    0.3350   -0.8540 C   0  0  0  0  0  0  0  0  0  0  0  0
   -2.6530   -0.1530   -1.9690 O   0  0  0  0  0  0  0  0  0  0  0  0
   -1.7370    0.4720   -0.0170 N   0  0  0  0  0  0  0  0  0  0  0  0
   -1.8730    0.8350    0.8960 H   0  0  0  0  0  0  0  0  0  0  0  0
   -0.3990   -0.0050   -0.3140 C   0  0  1  0  0  0  0  0  0  0  0  0
   -0.3370   -0.2450   -1.3670 H   0  0  0  0  0  0  0  0  0  0  0  0
    0.6710    1.0560   -0.0360 C   0  0  1  0  0  0  0  0  0  0  0  0
    0.3970    1.9480   -0.6510 H   0  0  0  0  0  0  0  0  0  0  0  0
    0.6610    1.4920    1.4490 C   0  0  0  0  0  0  0  0  0  0  0  0
    1.3770    2.3240    1.6110 H   0  0  0  0  0  0  0  0  0  0  0  0
   -0.3420    1.8460    1.7610 H   0  0  0  0  0  0  0  0  0  0  0  0
    0.9590    0.6510    2.1100 H   0  0  0  0  0  0  0  0  0  0  0  0
    2.0760    0.5980   -0.5010 C   0  0  0  0  0  0  0  0  0  0  0  0
    2.4690   -0.1650    0.2080 H   0  0  0  0  0  0  0  0  0  0  0  0
    1.9800    0.1180   -1.5010 H   0  0  0  0  0  0  0  0  0  0  0  0
    3.0830    1.7490   -0.6210 C   0  0  0  0  0  0  0  0  0  0  0  0
    4.0530    1.3780   -1.0160 H   0  0  0  0  0  0  0  0  0  0  0  0
    2.7010    2.5310   -1.3120 H   0  0  0  0  0  0  0  0  0  0  0  0
    3.2710    2.2160    0.3690 H   0  0  0  0  0  0  0  0  0  0  0  0
   -0.1480   -1.3000    0.4450 C   0  0  0  0  0  0  0  0  0  0  0  0
   -0.5460   -1.4550    1.5980 O   0  0  0  0  0  0  0  0  0  0  0  0
    0.5000   -2.2880   -0.2060 N   0  0  0  0  0  0  0  0  0  0  0  0
    0.7890   -2.1610   -1.1490 H   0  0  0  0  0  0  0  0  0  0  0  0
    0.7450   -3.5730    0.4080 C   0  0  0  0  0  0  0  0  0  0  0  0
   -0.2000   -4.1590    0.4710 H   0  0  0  0  0  0  0  0  0  0  0  0
    1.4810   -4.1580   -0.1880 H   0  0  0  0  0  0  0  0  0  0  0  0
    1.1490   -3.4570    1.4400 H   0  0  0  0  0  0  0  0  0  0  0  0
  1  2  1  0  0  0  0
  1  3  1  0  0  0  0
  4  1  1  0  0  0  0
  5  1  1  0  0  0  0
  5  7  1  0  0  0  0
  6  5  2  0  0  0  0
  7  8  1  0  0  0  0
  9 10  1  6  0  0  0
  9 11  1  0  0  0  0
  9  7  1  0  0  0  0
  9 24  1  0  0  0  0
 11 12  1  6  0  0  0
 11 13  1  0  0  0  0
 13 14  1  0  0  0  0
 13 15  1  0  0  0  0
 13 16  1  0  0  0  0
 17 11  1  0  0  0  0
 17 18  1  0  0  0  0
 19 17  1  0  0  0  0
 20 17  1  0  0  0  0
 20 23  1  0  0  0  0
 21 20  1  0  0  0  0
 22 20  1  0  0  0  0
 24 25  2  0  0  0  0
 26 28  1  0  0  0  0
 26 24  1  0  0  0  0
 27 26  1  0  0  0  0
 28 29  1  0  0  0  0
 28 31  1  0  0  0  0
 30 28  1  0  0  0  0
M  END
>  <REMARK>
  EXECUTING CHARMM SCRIPT FROM PYTHON                                           
   DATE:    12/ 8/23     14:57:42      CREATED BY USER: himmelreich             

$$$$
