leu-d0ac45d6-fb09-4adb-9ef3-4ac21676c0e3-end.pdb
 OpenBabel12122316093D

 31 30  0  0  1  0  0  0  0  0999 V2000
   -4.2070    0.6660    1.0490 C   0  0  0  0  0  0  0  0  0  0  0  0
   -4.3840   -0.4030    1.0760 H   0  0  0  0  0  0  0  0  0  0  0  0
   -4.8720    0.9170    0.1840 H   0  0  0  0  0  0  0  0  0  0  0  0
   -4.4980    1.1900    1.9760 H   0  0  0  0  0  0  0  0  0  0  0  0
   -2.7850    0.9060    0.6910 C   0  0  0  0  0  0  0  0  0  0  0  0
   -2.3630    1.9830    0.3530 O   0  0  0  0  0  0  0  0  0  0  0  0
   -2.0110   -0.1350    0.6700 N   0  0  0  0  0  0  0  0  0  0  0  0
   -2.4310   -1.0330    0.7920 H   0  0  0  0  0  0  0  0  0  0  0  0
   -0.5940   -0.1270    0.2670 C   0  0  1  0  0  0  0  0  0  0  0  0
   -0.1300    0.8350    0.4860 H   0  0  0  0  0  0  0  0  0  0  0  0
    0.3170   -1.1520    1.0770 C   0  0  0  0  0  0  0  0  0  0  0  0
    0.1600   -0.9010    2.1250 H   0  0  0  0  0  0  0  0  0  0  0  0
   -0.0100   -2.2760    0.9670 H   0  0  0  0  0  0  0  0  0  0  0  0
    1.8060   -1.2390    0.7100 C   0  0  0  0  0  0  0  0  0  0  0  0
    1.9570   -1.1620   -0.4170 H   0  0  0  0  0  0  0  0  0  0  0  0
    2.4980    0.0150    1.4190 C   0  0  0  0  0  0  0  0  0  0  0  0
    3.5290    0.1220    1.1900 H   0  0  0  0  0  0  0  0  0  0  0  0
    2.1320    0.9120    0.9380 H   0  0  0  0  0  0  0  0  0  0  0  0
    2.3530    0.0300    2.5250 H   0  0  0  0  0  0  0  0  0  0  0  0
    2.3260   -2.5660    1.2180 C   0  0  0  0  0  0  0  0  0  0  0  0
    3.4370   -2.4760    1.1930 H   0  0  0  0  0  0  0  0  0  0  0  0
    2.1000   -2.7120    2.2660 H   0  0  0  0  0  0  0  0  0  0  0  0
    1.9580   -3.4380    0.6020 H   0  0  0  0  0  0  0  0  0  0  0  0
   -0.3650   -0.3470   -1.2180 C   0  0  0  0  0  0  0  0  0  0  0  0
   -0.8770   -1.2690   -1.8280 O   0  0  0  0  0  0  0  0  0  0  0  0
    0.3940    0.5840   -1.8450 N   0  0  0  0  0  0  0  0  0  0  0  0
    0.9040    1.3050   -1.3870 H   0  0  0  0  0  0  0  0  0  0  0  0
    0.7400    0.5230   -3.1910 C   0  0  0  0  0  0  0  0  0  0  0  0
   -0.0890    1.0500   -3.8140 H   0  0  0  0  0  0  0  0  0  0  0  0
    1.7500    0.9990   -3.3470 H   0  0  0  0  0  0  0  0  0  0  0  0
    0.8190   -0.5360   -3.5760 H   0  0  0  0  0  0  0  0  0  0  0  0
  1  2  1  0  0  0  0
  1  4  1  0  0  0  0
  3  1  1  0  0  0  0
  5  1  1  0  0  0  0
  6  5  2  0  0  0  0
  7  5  1  0  0  0  0
  7  8  1  0  0  0  0
  9 10  1  1  0  0  0
  9  7  1  0  0  0  0
  9 11  1  0  0  0  0
 11 12  1  0  0  0  0
 13 11  1  0  0  0  0
 14 11  1  0  0  0  0
 14 20  1  0  0  0  0
 14 16  1  0  0  0  0
 15 14  1  0  0  0  0
 16 19  1  0  0  0  0
 17 16  1  0  0  0  0
 18 16  1  0  0  0  0
 20 22  1  0  0  0  0
 21 20  1  0  0  0  0
 23 20  1  0  0  0  0
 24  9  1  0  0  0  0
 25 24  2  0  0  0  0
 26 27  1  0  0  0  0
 26 24  1  0  0  0  0
 28 26  1  0  0  0  0
 29 28  1  0  0  0  0
 30 28  1  0  0  0  0
 31 28  1  0  0  0  0
M  END
>  <REMARK>
  EXECUTING CHARMM SCRIPT FROM PYTHON                                           
   DATE:    12/ 8/23     14:57:46      CREATED BY USER: himmelreich             

$$$$
