leu-d0ac45d6-fb09-4adb-9ef3-4ac21676c0e3.pdb
 OpenBabel12122316093D

 31 30  0  0  1  0  0  0  0  0999 V2000
   -4.3190    0.7100   -0.0400 C   0  0  0  0  0  0  0  0  0  0  0  0
   -4.2900    1.6780    0.5040 H   0  0  0  0  0  0  0  0  0  0  0  0
   -4.6170   -0.0980    0.6610 H   0  0  0  0  0  0  0  0  0  0  0  0
   -5.0750    0.7760   -0.8520 H   0  0  0  0  0  0  0  0  0  0  0  0
   -2.9940    0.4070   -0.6250 C   0  0  0  0  0  0  0  0  0  0  0  0
   -2.8760    0.1050   -1.8060 O   0  0  0  0  0  0  0  0  0  0  0  0
   -1.9480    0.4780    0.2030 N   0  0  0  0  0  0  0  0  0  0  0  0
   -2.0820    0.6910    1.1640 H   0  0  0  0  0  0  0  0  0  0  0  0
   -0.5970    0.1470   -0.1990 C   0  0  1  0  0  0  0  0  0  0  0  0
   -0.5220    0.1700   -1.2780 H   0  0  0  0  0  0  0  0  0  0  0  0
    0.4100    1.1800    0.3750 C   0  0  0  0  0  0  0  0  0  0  0  0
    0.0500    2.1760    0.0310 H   0  0  0  0  0  0  0  0  0  0  0  0
    0.3700    1.1840    1.4850 H   0  0  0  0  0  0  0  0  0  0  0  0
    1.8790    1.0290   -0.0860 C   0  0  0  0  0  0  0  0  0  0  0  0
    1.8820    0.5670   -1.1030 H   0  0  0  0  0  0  0  0  0  0  0  0
    2.5490    2.4080   -0.2090 C   0  0  0  0  0  0  0  0  0  0  0  0
    3.5950    2.3020   -0.5660 H   0  0  0  0  0  0  0  0  0  0  0  0
    1.9970    3.0500   -0.9280 H   0  0  0  0  0  0  0  0  0  0  0  0
    2.5660    2.9160    0.7780 H   0  0  0  0  0  0  0  0  0  0  0  0
    2.7150    0.1490    0.8590 C   0  0  0  0  0  0  0  0  0  0  0  0
    3.7580    0.0670    0.4850 H   0  0  0  0  0  0  0  0  0  0  0  0
    2.7450    0.5990    1.8740 H   0  0  0  0  0  0  0  0  0  0  0  0
    2.2980   -0.8740    0.9470 H   0  0  0  0  0  0  0  0  0  0  0  0
   -0.2720   -1.2660    0.2540 C   0  0  0  0  0  0  0  0  0  0  0  0
   -0.4900   -1.6290    1.4080 O   0  0  0  0  0  0  0  0  0  0  0  0
    0.2520   -2.1070   -0.6600 N   0  0  0  0  0  0  0  0  0  0  0  0
    0.3880   -1.8050   -1.5980 H   0  0  0  0  0  0  0  0  0  0  0  0
    0.5890   -3.4730   -0.3350 C   0  0  0  0  0  0  0  0  0  0  0  0
   -0.3300   -4.1000   -0.3000 H   0  0  0  0  0  0  0  0  0  0  0  0
    1.2750   -3.8980   -1.1010 H   0  0  0  0  0  0  0  0  0  0  0  0
    1.0950   -3.5410    0.6560 H   0  0  0  0  0  0  0  0  0  0  0  0
  1  2  1  0  0  0  0
  1  3  1  0  0  0  0
  4  1  1  0  0  0  0
  5  1  1  0  0  0  0
  5  7  1  0  0  0  0
  6  5  2  0  0  0  0
  7  8  1  0  0  0  0
  9 10  1  6  0  0  0
  9  7  1  0  0  0  0
  9 24  1  0  0  0  0
  9 11  1  0  0  0  0
 11 13  1  0  0  0  0
 12 11  1  0  0  0  0
 14 11  1  0  0  0  0
 14 20  1  0  0  0  0
 15 14  1  0  0  0  0
 16 14  1  0  0  0  0
 16 19  1  0  0  0  0
 17 16  1  0  0  0  0
 18 16  1  0  0  0  0
 20 23  1  0  0  0  0
 20 22  1  0  0  0  0
 21 20  1  0  0  0  0
 24 25  2  0  0  0  0
 26 28  1  0  0  0  0
 26 24  1  0  0  0  0
 27 26  1  0  0  0  0
 28 29  1  0  0  0  0
 28 31  1  0  0  0  0
 30 28  1  0  0  0  0
M  END
>  <REMARK>
  EXECUTING CHARMM SCRIPT FROM PYTHON                                           
   DATE:    12/ 8/23     14:57:45      CREATED BY USER: himmelreich             

$$$$
