lys-aa2266c5-68eb-4a96-b2b0-f3581e34e8c3-end.pdb
 OpenBabel12122316093D

 34 33  0  0  1  0  0  0  0  0999 V2000
   -4.6830    0.8910   -0.0140 C   0  0  0  0  0  0  0  0  0  0  0  0
   -4.4010    2.0100    0.2650 H   0  0  0  0  0  0  0  0  0  0  0  0
   -5.2510    0.3870    0.8280 H   0  0  0  0  0  0  0  0  0  0  0  0
   -5.3560    0.9090   -0.8340 H   0  0  0  0  0  0  0  0  0  0  0  0
   -3.4680    0.1200   -0.4550 C   0  0  0  0  0  0  0  0  0  0  0  0
   -3.5980   -0.8960   -1.1300 O   0  0  0  0  0  0  0  0  0  0  0  0
   -2.2710    0.6840   -0.1540 N   0  0  0  0  0  0  0  0  0  0  0  0
   -2.2650    1.5340    0.3850 H   0  0  0  0  0  0  0  0  0  0  0  0
   -1.0050    0.1200   -0.6220 C   0  0  1  0  0  0  0  0  0  0  0  0
   -1.1240   -0.2010   -1.6350 H   0  0  0  0  0  0  0  0  0  0  0  0
   -0.0050    1.3190   -0.5780 C   0  0  0  0  0  0  0  0  0  0  0  0
   -0.4850    2.0850   -1.2210 H   0  0  0  0  0  0  0  0  0  0  0  0
    0.1720    1.8240    0.3560 H   0  0  0  0  0  0  0  0  0  0  0  0
    1.4200    1.1180   -1.1210 C   0  0  0  0  0  0  0  0  0  0  0  0
    1.4750    0.0230   -1.1840 H   0  0  0  0  0  0  0  0  0  0  0  0
    1.3710    1.4080   -2.2350 H   0  0  0  0  0  0  0  0  0  0  0  0
    2.5430    1.8060   -0.3950 C   0  0  0  0  0  0  0  0  0  0  0  0
    2.9830    2.5620   -1.1620 H   0  0  0  0  0  0  0  0  0  0  0  0
    2.1880    2.3730    0.4310 H   0  0  0  0  0  0  0  0  0  0  0  0
    3.5360    0.7820    0.0440 C   0  0  0  0  0  0  0  0  0  0  0  0
    3.6560   -0.1050   -0.5690 H   0  0  0  0  0  0  0  0  0  0  0  0
    4.5400    1.1490    0.1580 H   0  0  0  0  0  0  0  0  0  0  0  0
    3.1150    0.3080    1.4380 N   0  0  0  0  0  4  0  0  0  0  0  0
    3.0680    1.1820    2.0100 H   0  0  0  0  0  0  0  0  0  0  0  0
    2.1790   -0.2270    1.4570 H   0  0  0  0  0  0  0  0  0  0  0  0
    3.8160   -0.3340    1.7670 H   0  0  0  0  0  0  0  0  0  0  0  0
   -0.4030   -0.9950    0.2120 C   0  0  0  0  0  0  0  0  0  0  0  0
    0.5630   -0.7700    0.9450 O   0  0  0  0  0  0  0  0  0  0  0  0
   -1.1120   -2.1700    0.0210 N   0  0  0  0  0  0  0  0  0  0  0  0
   -1.8990   -2.0400   -0.5760 H   0  0  0  0  0  0  0  0  0  0  0  0
   -0.8500   -3.4340    0.7590 C   0  0  0  0  0  0  0  0  0  0  0  0
   -0.0290   -3.2860    1.4860 H   0  0  0  0  0  0  0  0  0  0  0  0
   -1.7070   -3.7780    1.2990 H   0  0  0  0  0  0  0  0  0  0  0  0
   -0.5500   -4.2970    0.0870 H   0  0  0  0  0  0  0  0  0  0  0  0
  1  2  1  0  0  0  0
  1  3  1  0  0  0  0
  4  1  1  0  0  0  0
  5  7  1  0  0  0  0
  5  1  1  0  0  0  0
  6  5  2  0  0  0  0
  7  8  1  0  0  0  0
  9 10  1  6  0  0  0
  9 11  1  0  0  0  0
  9  7  1  0  0  0  0
  9 27  1  0  0  0  0
 11 13  1  0  0  0  0
 12 11  1  0  0  0  0
 14 11  1  0  0  0  0
 14 17  1  0  0  0  0
 15 14  1  0  0  0  0
 16 14  1  0  0  0  0
 17 20  1  0  0  0  0
 17 19  1  0  0  0  0
 18 17  1  0  0  0  0
 20 22  1  0  0  0  0
 20 23  1  0  0  0  0
 21 20  1  0  0  0  0
 23 25  1  0  0  0  0
 23 26  1  0  0  0  0
 23 24  1  0  0  0  0
 27 28  2  0  0  0  0
 29 27  1  0  0  0  0
 29 31  1  0  0  0  0
 30 29  1  0  0  0  0
 31 33  1  0  0  0  0
 31 32  1  0  0  0  0
 34 31  1  0  0  0  0
M  END
>  <REMARK>
  EXECUTING CHARMM SCRIPT FROM PYTHON                                           
   DATE:    12/ 8/23     14:57:49      CREATED BY USER: himmelreich             

$$$$
