lys-aa2266c5-68eb-4a96-b2b0-f3581e34e8c3.pdb
 OpenBabel12122316093D

 34 33  0  0  1  0  0  0  0  0999 V2000
   -4.5810    1.5500   -0.0140 C   0  0  0  0  0  0  0  0  0  0  0  0
   -4.2920    2.4670    0.5430 H   0  0  0  0  0  0  0  0  0  0  0  0
   -5.0710    0.8380    0.6830 H   0  0  0  0  0  0  0  0  0  0  0  0
   -5.3050    1.8290   -0.8100 H   0  0  0  0  0  0  0  0  0  0  0  0
   -3.3870    0.9270   -0.6290 C   0  0  0  0  0  0  0  0  0  0  0  0
   -3.3070    0.7620   -1.8390 O   0  0  0  0  0  0  0  0  0  0  0  0
   -2.4160    0.5600    0.2060 N   0  0  0  0  0  0  0  0  0  0  0  0
   -2.5300    0.6930    1.1840 H   0  0  0  0  0  0  0  0  0  0  0  0
   -1.1840   -0.0660   -0.2430 C   0  0  1  0  0  0  0  0  0  0  0  0
   -1.2170   -0.2280   -1.3120 H   0  0  0  0  0  0  0  0  0  0  0  0
    0.0370    0.8430    0.0710 C   0  0  0  0  0  0  0  0  0  0  0  0
   -0.1300    1.8160   -0.4470 H   0  0  0  0  0  0  0  0  0  0  0  0
    0.0430    1.0440    1.1670 H   0  0  0  0  0  0  0  0  0  0  0  0
    1.4100    0.2800   -0.3470 C   0  0  0  0  0  0  0  0  0  0  0  0
    1.5540   -0.7210    0.1180 H   0  0  0  0  0  0  0  0  0  0  0  0
    1.4230    0.1430   -1.4520 H   0  0  0  0  0  0  0  0  0  0  0  0
    2.5800    1.1790    0.0960 C   0  0  0  0  0  0  0  0  0  0  0  0
    2.4820    2.1560   -0.4290 H   0  0  0  0  0  0  0  0  0  0  0  0
    2.4700    1.3610    1.1910 H   0  0  0  0  0  0  0  0  0  0  0  0
    3.9500    0.5480   -0.1850 C   0  0  0  0  0  0  0  0  0  0  0  0
    4.0360   -0.4300    0.3380 H   0  0  0  0  0  0  0  0  0  0  0  0
    4.0870    0.3870   -1.2760 H   0  0  0  0  0  0  0  0  0  0  0  0
    5.0390    1.4290    0.3000 N   0  0  0  0  0  4  0  0  0  0  0  0
    5.9630    0.9870    0.1170 H   0  0  0  0  0  0  0  0  0  0  0  0
    4.9920    2.3450   -0.1890 H   0  0  0  0  0  0  0  0  0  0  0  0
    4.9300    1.5830    1.3240 H   0  0  0  0  0  0  0  0  0  0  0  0
   -1.0480   -1.4460    0.3920 C   0  0  0  0  0  0  0  0  0  0  0  0
   -0.3950   -1.6170    1.4150 O   0  0  0  0  0  0  0  0  0  0  0  0
   -1.6720   -2.4620   -0.2240 N   0  0  0  0  0  0  0  0  0  0  0  0
   -2.2430   -2.2860   -1.0250 H   0  0  0  0  0  0  0  0  0  0  0  0
   -1.5750   -3.8350    0.2300 C   0  0  0  0  0  0  0  0  0  0  0  0
   -2.4670   -4.4130   -0.0920 H   0  0  0  0  0  0  0  0  0  0  0  0
   -0.6700   -4.3190   -0.2020 H   0  0  0  0  0  0  0  0  0  0  0  0
   -1.5080   -3.9040    1.3410 H   0  0  0  0  0  0  0  0  0  0  0  0
  1  2  1  0  0  0  0
  1  3  1  0  0  0  0
  4  1  1  0  0  0  0
  5  1  1  0  0  0  0
  5  7  1  0  0  0  0
  6  5  2  0  0  0  0
  7  8  1  0  0  0  0
  9 10  1  6  0  0  0
  9 11  1  0  0  0  0
  9  7  1  0  0  0  0
  9 27  1  0  0  0  0
 11 13  1  0  0  0  0
 12 11  1  0  0  0  0
 14 11  1  0  0  0  0
 14 17  1  0  0  0  0
 14 15  1  0  0  0  0
 16 14  1  0  0  0  0
 17 19  1  0  0  0  0
 18 17  1  0  0  0  0
 20 17  1  0  0  0  0
 20 23  1  0  0  0  0
 20 21  1  0  0  0  0
 22 20  1  0  0  0  0
 23 26  1  0  0  0  0
 24 23  1  0  0  0  0
 25 23  1  0  0  0  0
 27 28  2  0  0  0  0
 29 31  1  0  0  0  0
 29 27  1  0  0  0  0
 30 29  1  0  0  0  0
 31 34  1  0  0  0  0
 32 31  1  0  0  0  0
 33 31  1  0  0  0  0
M  END
>  <REMARK>
  EXECUTING CHARMM SCRIPT FROM PYTHON                                           
   DATE:    12/ 8/23     14:57:48      CREATED BY USER: himmelreich             

$$$$
