met-728f7dbc-b3a7-46e6-b183-ef16dff06879.pdb
 OpenBabel12122316093D

 29 28  0  0  1  0  0  0  0  0999 V2000
   -4.3920    1.0120   -0.1000 C   0  0  0  0  0  0  0  0  0  0  0  0
   -4.2840    1.8900    0.5690 H   0  0  0  0  0  0  0  0  0  0  0  0
   -4.8520    0.1720    0.4630 H   0  0  0  0  0  0  0  0  0  0  0  0
   -5.0580    1.2840   -0.9470 H   0  0  0  0  0  0  0  0  0  0  0  0
   -3.0740    0.5990   -0.6350 C   0  0  0  0  0  0  0  0  0  0  0  0
   -2.9470    0.2290   -1.7890 O   0  0  0  0  0  0  0  0  0  0  0  0
   -2.0420    0.6560    0.2190 N   0  0  0  0  0  0  0  0  0  0  0  0
   -2.1840    0.9180    1.1650 H   0  0  0  0  0  0  0  0  0  0  0  0
   -0.7000    0.2540   -0.1420 C   0  0  1  0  0  0  0  0  0  0  0  0
   -0.6230    0.1540   -1.2160 H   0  0  0  0  0  0  0  0  0  0  0  0
    0.3350    1.3140    0.3160 C   0  0  0  0  0  0  0  0  0  0  0  0
    0.0750    2.2770   -0.1780 H   0  0  0  0  0  0  0  0  0  0  0  0
    0.2320    1.4650    1.4150 H   0  0  0  0  0  0  0  0  0  0  0  0
    1.8020    0.9640   -0.0070 C   0  0  0  0  0  0  0  0  0  0  0  0
    2.0740    0.0220    0.5160 H   0  0  0  0  0  0  0  0  0  0  0  0
    1.8890    0.7760   -1.1000 H   0  0  0  0  0  0  0  0  0  0  0  0
    2.9820    2.2570    0.4790 S   0  0  0  0  0  0  0  0  0  0  0  0
    4.4410    1.2880    0.0030 C   0  0  0  0  0  0  0  0  0  0  0  0
    5.3770    1.8290    0.2620 H   0  0  0  0  0  0  0  0  0  0  0  0
    4.4600    0.3090    0.5290 H   0  0  0  0  0  0  0  0  0  0  0  0
    4.4520    1.0920   -1.0900 H   0  0  0  0  0  0  0  0  0  0  0  0
   -0.3820   -1.1030    0.4650 C   0  0  0  0  0  0  0  0  0  0  0  0
   -0.6330   -1.3430    1.6440 O   0  0  0  0  0  0  0  0  0  0  0  0
    0.1860   -2.0240   -0.3420 N   0  0  0  0  0  0  0  0  0  0  0  0
    0.3410   -1.8110   -1.3010 H   0  0  0  0  0  0  0  0  0  0  0  0
    0.5550   -3.3470    0.1110 C   0  0  0  0  0  0  0  0  0  0  0  0
   -0.2380   -4.0800   -0.1560 H   0  0  0  0  0  0  0  0  0  0  0  0
    1.5060   -3.6650   -0.3710 H   0  0  0  0  0  0  0  0  0  0  0  0
    0.7040   -3.3890    1.2160 H   0  0  0  0  0  0  0  0  0  0  0  0
  1  3  1  0  0  0  0
  1  2  1  0  0  0  0
  4  1  1  0  0  0  0
  5  1  1  0  0  0  0
  5  7  1  0  0  0  0
  6  5  2  0  0  0  0
  7  8  1  0  0  0  0
  9 10  1  6  0  0  0
  9  7  1  0  0  0  0
  9 11  1  0  0  0  0
  9 22  1  0  0  0  0
 11 13  1  0  0  0  0
 12 11  1  0  0  0  0
 14 11  1  0  0  0  0
 14 17  1  0  0  0  0
 14 15  1  0  0  0  0
 16 14  1  0  0  0  0
 18 19  1  0  0  0  0
 18 17  1  0  0  0  0
 18 20  1  0  0  0  0
 21 18  1  0  0  0  0
 22 23  2  0  0  0  0
 24 26  1  0  0  0  0
 24 22  1  0  0  0  0
 25 24  1  0  0  0  0
 26 29  1  0  0  0  0
 27 26  1  0  0  0  0
 28 26  1  0  0  0  0
M  END
>  <REMARK>
  EXECUTING CHARMM SCRIPT FROM PYTHON                                           
   DATE:    12/ 8/23     14:57:51      CREATED BY USER: himmelreich             

$$$$
