met-728f7dbc-b3a7-46e6-b183-ef16dff06879-end.pdb
 OpenBabel12122316093D

 29 28  0  0  1  0  0  0  0  0999 V2000
   -4.2600    1.4550    0.0530 C   0  0  0  0  0  0  0  0  0  0  0  0
   -4.6600    0.5150    0.3220 H   0  0  0  0  0  0  0  0  0  0  0  0
   -4.7960    2.0260   -0.8060 H   0  0  0  0  0  0  0  0  0  0  0  0
   -4.2870    2.1430    0.9590 H   0  0  0  0  0  0  0  0  0  0  0  0
   -2.8590    1.4510   -0.4060 C   0  0  0  0  0  0  0  0  0  0  0  0
   -2.5310    2.1350   -1.3370 O   0  0  0  0  0  0  0  0  0  0  0  0
   -1.9920    0.6720    0.1910 N   0  0  0  0  0  0  0  0  0  0  0  0
   -2.2580    0.0800    1.0150 H   0  0  0  0  0  0  0  0  0  0  0  0
   -0.6630    0.6120   -0.3320 C   0  0  1  0  0  0  0  0  0  0  0  0
   -0.5600    0.8960   -1.4060 H   0  0  0  0  0  0  0  0  0  0  0  0
    0.3740    1.4730    0.4740 C   0  0  0  0  0  0  0  0  0  0  0  0
   -0.0210    2.5140    0.3360 H   0  0  0  0  0  0  0  0  0  0  0  0
    0.2860    1.1440    1.4690 H   0  0  0  0  0  0  0  0  0  0  0  0
    1.8660    1.4830    0.1140 C   0  0  0  0  0  0  0  0  0  0  0  0
    1.9920    1.4710   -1.0340 H   0  0  0  0  0  0  0  0  0  0  0  0
    2.3640    2.3700    0.5240 H   0  0  0  0  0  0  0  0  0  0  0  0
    2.9510    0.1940    0.6490 S   0  0  0  0  0  0  0  0  0  0  0  0
    2.7920    0.3050    2.4190 C   0  0  0  0  0  0  0  0  0  0  0  0
    3.1990    1.3200    2.7830 H   0  0  0  0  0  0  0  0  0  0  0  0
    1.7890    0.1640    2.8760 H   0  0  0  0  0  0  0  0  0  0  0  0
    3.4810   -0.4540    2.9940 H   0  0  0  0  0  0  0  0  0  0  0  0
   -0.2770   -0.8730   -0.2960 C   0  0  0  0  0  0  0  0  0  0  0  0
   -0.8180   -1.5840    0.5210 O   0  0  0  0  0  0  0  0  0  0  0  0
    0.6580   -1.3980   -1.1600 N   0  0  0  0  0  0  0  0  0  0  0  0
    0.9360   -0.7900   -1.9030 H   0  0  0  0  0  0  0  0  0  0  0  0
    1.0320   -2.7710   -1.0370 C   0  0  0  0  0  0  0  0  0  0  0  0
    0.2440   -3.5160   -1.4080 H   0  0  0  0  0  0  0  0  0  0  0  0
    1.9530   -3.0320   -1.6140 H   0  0  0  0  0  0  0  0  0  0  0  0
    1.1990   -2.9900    0.0070 H   0  0  0  0  0  0  0  0  0  0  0  0
  1  2  1  0  0  0  0
  1  4  1  0  0  0  0
  3  1  1  0  0  0  0
  5  1  1  0  0  0  0
  5  7  1  0  0  0  0
  6  5  2  0  0  0  0
  7  8  1  0  0  0  0
  9 10  1  6  0  0  0
  9 22  1  0  0  0  0
  9  7  1  0  0  0  0
  9 11  1  0  0  0  0
 11 13  1  0  0  0  0
 12 11  1  0  0  0  0
 14 11  1  0  0  0  0
 14 16  1  0  0  0  0
 14 17  1  0  0  0  0
 15 14  1  0  0  0  0
 17 18  1  0  0  0  0
 18 19  1  0  0  0  0
 18 20  1  0  0  0  0
 18 21  1  0  0  0  0
 22 23  2  0  0  0  0
 24 26  1  0  0  0  0
 24 22  1  0  0  0  0
 25 24  1  0  0  0  0
 26 29  1  0  0  0  0
 27 26  1  0  0  0  0
 28 26  1  0  0  0  0
M  END
>  <REMARK>
  EXECUTING CHARMM SCRIPT FROM PYTHON                                           
   DATE:    12/ 8/23     14:57:51      CREATED BY USER: himmelreich             

$$$$
