phe-cf3cd971-b8ab-41ea-8b75-d872a1133145-end.pdb
 OpenBabel12122316093D

 32 32  0  0  1  0  0  0  0  0999 V2000
   -4.7110    0.6700   -0.5380 C   0  0  0  0  0  0  0  0  0  0  0  0
   -5.1900    1.3360    0.1660 H   0  0  0  0  0  0  0  0  0  0  0  0
   -4.8670   -0.3850   -0.2650 H   0  0  0  0  0  0  0  0  0  0  0  0
   -5.3250    0.8340   -1.4640 H   0  0  0  0  0  0  0  0  0  0  0  0
   -3.2880    1.0230   -0.6380 C   0  0  0  0  0  0  0  0  0  0  0  0
   -2.8040    2.0400   -1.1270 O   0  0  0  0  0  0  0  0  0  0  0  0
   -2.4110    0.1120   -0.1580 N   0  0  0  0  0  0  0  0  0  0  0  0
   -2.7200   -0.7170    0.3480 H   0  0  0  0  0  0  0  0  0  0  0  0
   -1.0060    0.1690   -0.4240 C   0  0  1  0  0  0  0  0  0  0  0  0
   -0.7950    0.5500   -1.4210 H   0  0  0  0  0  0  0  0  0  0  0  0
   -0.3670    1.0700    0.7410 C   0  0  0  0  0  0  0  0  0  0  0  0
   -0.5440    2.1710    0.6020 H   0  0  0  0  0  0  0  0  0  0  0  0
   -0.7560    0.6020    1.6910 H   0  0  0  0  0  0  0  0  0  0  0  0
    1.1560    1.0270    0.7930 C   0  0  0  0  0  0  0  0  0  0  0  0
    1.9830    1.7020   -0.2170 C   0  0  0  0  0  0  0  0  0  0  0  0
    1.5340    2.3060   -0.9310 H   0  0  0  0  0  0  0  0  0  0  0  0
    3.3060    1.4210   -0.3330 C   0  0  0  0  0  0  0  0  0  0  0  0
    3.7730    1.8990   -1.1950 H   0  0  0  0  0  0  0  0  0  0  0  0
    3.9860    0.6510    0.5930 C   0  0  0  0  0  0  0  0  0  0  0  0
    5.0860    0.4190    0.4360 H   0  0  0  0  0  0  0  0  0  0  0  0
    1.8380    0.2040    1.7570 C   0  0  0  0  0  0  0  0  0  0  0  0
    1.2400   -0.2860    2.4990 H   0  0  0  0  0  0  0  0  0  0  0  0
    3.2890   -0.0200    1.5720 C   0  0  0  0  0  0  0  0  0  0  0  0
    3.8660   -0.5070    2.2380 H   0  0  0  0  0  0  0  0  0  0  0  0
   -0.6880   -1.3610   -0.4690 C   0  0  0  0  0  0  0  0  0  0  0  0
   -1.5120   -2.1910   -0.1390 O   0  0  0  0  0  0  0  0  0  0  0  0
    0.6010   -1.6950   -0.6880 N   0  0  0  0  0  0  0  0  0  0  0  0
    1.3290   -1.0270   -0.7870 H   0  0  0  0  0  0  0  0  0  0  0  0
    1.1800   -3.0300   -0.5450 C   0  0  0  0  0  0  0  0  0  0  0  0
    1.9920   -3.2090   -1.2370 H   0  0  0  0  0  0  0  0  0  0  0  0
    1.6780   -3.0950    0.4610 H   0  0  0  0  0  0  0  0  0  0  0  0
    0.4240   -3.8660   -0.7060 H   0  0  0  0  0  0  0  0  0  0  0  0
  1  3  1  0  0  0  0
  1  2  1  0  0  0  0
  4  1  1  0  0  0  0
  5  1  1  0  0  0  0
  5  7  1  0  0  0  0
  6  5  2  0  0  0  0
  7  8  1  0  0  0  0
  9 10  1  6  0  0  0
  9  7  1  0  0  0  0
  9 11  1  0  0  0  0
 11 14  1  0  0  0  0
 11 13  1  0  0  0  0
 12 11  1  0  0  0  0
 14 21  1  0  0  0  0
 15 14  2  0  0  0  0
 16 15  1  0  0  0  0
 17 15  1  0  0  0  0
 17 19  2  0  0  0  0
 18 17  1  0  0  0  0
 19 23  1  0  0  0  0
 20 19  1  0  0  0  0
 21 22  1  0  0  0  0
 23 21  2  0  0  0  0
 23 24  1  0  0  0  0
 25  9  1  0  0  0  0
 25 26  2  0  0  0  0
 27 29  1  0  0  0  0
 27 25  1  0  0  0  0
 28 27  1  0  0  0  0
 29 31  1  0  0  0  0
 30 29  1  0  0  0  0
 32 29  1  0  0  0  0
M  END
>  <REMARK>
  EXECUTING CHARMM SCRIPT FROM PYTHON                                           
   DATE:    12/ 8/23     14:57:54      CREATED BY USER: himmelreich             

$$$$
