phe-cf3cd971-b8ab-41ea-8b75-d872a1133145.pdb
 OpenBabel12122316093D

 32 32  0  0  1  0  0  0  0  0999 V2000
   -4.6980    0.8450   -0.1740 C   0  0  0  0  0  0  0  0  0  0  0  0
   -4.8840    1.6240    0.5950 H   0  0  0  0  0  0  0  0  0  0  0  0
   -4.9700   -0.1490    0.2380 H   0  0  0  0  0  0  0  0  0  0  0  0
   -5.3390    1.0510   -1.0580 H   0  0  0  0  0  0  0  0  0  0  0  0
   -3.2750    0.8670   -0.5850 C   0  0  0  0  0  0  0  0  0  0  0  0
   -2.9230    1.3970   -1.6280 O   0  0  0  0  0  0  0  0  0  0  0  0
   -2.4110    0.2700    0.2440 N   0  0  0  0  0  0  0  0  0  0  0  0
   -2.7300   -0.1840    1.0680 H   0  0  0  0  0  0  0  0  0  0  0  0
   -1.0030    0.1210   -0.0480 C   0  0  1  0  0  0  0  0  0  0  0  0
   -0.8140    0.3680   -1.0850 H   0  0  0  0  0  0  0  0  0  0  0  0
   -0.1540    1.0310    0.8870 C   0  0  0  0  0  0  0  0  0  0  0  0
   -0.4980    2.0820    0.7730 H   0  0  0  0  0  0  0  0  0  0  0  0
   -0.2980    0.7360    1.9490 H   0  0  0  0  0  0  0  0  0  0  0  0
    1.3150    0.9920    0.5490 C   0  0  0  0  0  0  0  0  0  0  0  0
    1.7850    1.6280   -0.6110 C   0  0  0  0  0  0  0  0  0  0  0  0
    1.0860    2.1360   -1.2600 H   0  0  0  0  0  0  0  0  0  0  0  0
    3.1490    1.6150   -0.9300 C   0  0  0  0  0  0  0  0  0  0  0  0
    3.5010    2.1090   -1.8240 H   0  0  0  0  0  0  0  0  0  0  0  0
    4.0570    0.9660   -0.0830 C   0  0  0  0  0  0  0  0  0  0  0  0
    5.1100    0.9590   -0.3240 H   0  0  0  0  0  0  0  0  0  0  0  0
    2.2360    0.3490    1.3940 C   0  0  0  0  0  0  0  0  0  0  0  0
    1.8860   -0.1400    2.2910 H   0  0  0  0  0  0  0  0  0  0  0  0
    3.6010    0.3310    1.0790 C   0  0  0  0  0  0  0  0  0  0  0  0
    4.3010   -0.1680    1.7340 H   0  0  0  0  0  0  0  0  0  0  0  0
   -0.6660   -1.3520    0.1310 C   0  0  0  0  0  0  0  0  0  0  0  0
   -1.2530   -2.0320    0.9720 O   0  0  0  0  0  0  0  0  0  0  0  0
    0.2760   -1.8840   -0.6700 N   0  0  0  0  0  0  0  0  0  0  0  0
    0.7570   -1.3110   -1.3260 H   0  0  0  0  0  0  0  0  0  0  0  0
    0.6400   -3.2800   -0.5910 C   0  0  0  0  0  0  0  0  0  0  0  0
   -0.2620   -3.9310   -0.6710 H   0  0  0  0  0  0  0  0  0  0  0  0
    1.3360   -3.5490   -1.4150 H   0  0  0  0  0  0  0  0  0  0  0  0
    1.1420   -3.4990    0.3790 H   0  0  0  0  0  0  0  0  0  0  0  0
  1  3  1  0  0  0  0
  1  2  1  0  0  0  0
  4  1  1  0  0  0  0
  5  1  1  0  0  0  0
  5  7  1  0  0  0  0
  6  5  2  0  0  0  0
  7  8  1  0  0  0  0
  9 10  1  6  0  0  0
  9 25  1  0  0  0  0
  9  7  1  0  0  0  0
  9 11  1  0  0  0  0
 11 13  1  0  0  0  0
 12 11  1  0  0  0  0
 14 11  1  0  0  0  0
 14 21  1  0  0  0  0
 15 14  2  0  0  0  0
 16 15  1  0  0  0  0
 17 15  1  0  0  0  0
 17 19  2  0  0  0  0
 18 17  1  0  0  0  0
 19 23  1  0  0  0  0
 20 19  1  0  0  0  0
 21 22  1  0  0  0  0
 23 21  2  0  0  0  0
 23 24  1  0  0  0  0
 25 26  2  0  0  0  0
 27 29  1  0  0  0  0
 27 25  1  0  0  0  0
 28 27  1  0  0  0  0
 29 32  1  0  0  0  0
 30 29  1  0  0  0  0
 31 29  1  0  0  0  0
M  END
>  <REMARK>
  EXECUTING CHARMM SCRIPT FROM PYTHON                                           
   DATE:    12/ 8/23     14:57:54      CREATED BY USER: himmelreich             

$$$$
