pro-9c7b1d58-5fd0-4727-ade3-841d767139a9-min.pdb
 OpenBabel12122316093D

 26 26  0  0  1  0  0  0  0  0999 V2000
   -2.9220   -1.6540   -0.0270 C   0  0  0  0  0  0  0  0  0  0  0  0
   -3.7240   -0.9160   -0.2350 H   0  0  0  0  0  0  0  0  0  0  0  0
   -2.7760   -1.7570    1.0690 H   0  0  0  0  0  0  0  0  0  0  0  0
   -3.2350   -2.6400   -0.4340 H   0  0  0  0  0  0  0  0  0  0  0  0
   -1.6470   -1.2450   -0.6740 C   0  0  0  0  0  0  0  0  0  0  0  0
   -1.1160   -2.0000   -1.4830 O   0  0  0  0  0  0  0  0  0  0  0  0
   -1.1160   -0.0700   -0.3800 N   0  0  0  0  0  0  0  0  0  0  0  0
   -1.7230    0.9180    0.5190 C   0  0  0  0  0  0  0  0  0  0  0  0
   -1.9580    0.4680    1.5100 H   0  0  0  0  0  0  0  0  0  0  0  0
   -2.6460    1.3210    0.0470 H   0  0  0  0  0  0  0  0  0  0  0  0
    0.2320    0.2980   -0.7860 C   0  0  1  0  0  0  0  0  0  0  0  0
    0.4090   -0.0050   -1.8100 H   0  0  0  0  0  0  0  0  0  0  0  0
    0.2140    1.8230   -0.5780 C   0  0  0  0  0  0  0  0  0  0  0  0
   -0.2910    2.2930   -1.4520 H   0  0  0  0  0  0  0  0  0  0  0  0
    1.2230    2.2670   -0.4650 H   0  0  0  0  0  0  0  0  0  0  0  0
   -0.6640    2.0170    0.6650 C   0  0  0  0  0  0  0  0  0  0  0  0
   -1.1060    3.0310    0.7250 H   0  0  0  0  0  0  0  0  0  0  0  0
   -0.0580    1.8240    1.5790 H   0  0  0  0  0  0  0  0  0  0  0  0
    1.2780   -0.3760    0.0960 C   0  0  0  0  0  0  0  0  0  0  0  0
    0.9520   -0.8970    1.1630 O   0  0  0  0  0  0  0  0  0  0  0  0
    2.5580   -0.3650   -0.3220 N   0  0  0  0  0  0  0  0  0  0  0  0
    2.7980    0.0460   -1.1950 H   0  0  0  0  0  0  0  0  0  0  0  0
    3.6140   -0.9700    0.4570 C   0  0  0  0  0  0  0  0  0  0  0  0
    3.4790   -2.0750    0.5060 H   0  0  0  0  0  0  0  0  0  0  0  0
    4.6080   -0.7570    0.0050 H   0  0  0  0  0  0  0  0  0  0  0  0
    3.6140   -0.5770    1.5000 H   0  0  0  0  0  0  0  0  0  0  0  0
  1  3  1  0  0  0  0
  2  1  1  0  0  0  0
  4  1  1  0  0  0  0
  5  7  1  0  0  0  0
  5  1  1  0  0  0  0
  6  5  2  0  0  0  0
  7  8  1  0  0  0  0
  8 16  1  0  0  0  0
  8  9  1  0  0  0  0
 10  8  1  0  0  0  0
 11 12  1  6  0  0  0
 11 13  1  0  0  0  0
 11  7  1  0  0  0  0
 11 19  1  0  0  0  0
 13 15  1  0  0  0  0
 13 16  1  0  0  0  0
 14 13  1  0  0  0  0
 16 17  1  0  0  0  0
 16 18  1  0  0  0  0
 19 20  2  0  0  0  0
 21 19  1  0  0  0  0
 21 23  1  0  0  0  0
 22 21  1  0  0  0  0
 23 24  1  0  0  0  0
 23 26  1  0  0  0  0
 25 23  1  0  0  0  0
M  END
>  <REMARK>
  EXECUTING CHARMM SCRIPT FROM PYTHON                                           
   DATE:    12/ 8/23     14:57:56      CREATED BY USER: himmelreich             

$$$$
