pro-9c7b1d58-5fd0-4727-ade3-841d767139a9-end.pdb
 OpenBabel12122316093D

 26 26  0  0  1  0  0  0  0  0999 V2000
   -2.7630   -0.8920    1.3350 C   0  0  0  0  0  0  0  0  0  0  0  0
   -3.5080   -0.1910    0.9500 H   0  0  0  0  0  0  0  0  0  0  0  0
   -2.3550   -0.4560    2.2180 H   0  0  0  0  0  0  0  0  0  0  0  0
   -3.2380   -1.8250    1.6210 H   0  0  0  0  0  0  0  0  0  0  0  0
   -1.6600   -1.0980    0.2660 C   0  0  0  0  0  0  0  0  0  0  0  0
   -1.2160   -2.2300    0.0040 O   0  0  0  0  0  0  0  0  0  0  0  0
   -1.1440   -0.0020   -0.2780 N   0  0  0  0  0  0  0  0  0  0  0  0
   -1.5100    1.3830   -0.0360 C   0  0  0  0  0  0  0  0  0  0  0  0
   -1.2310    1.6350    1.0030 H   0  0  0  0  0  0  0  0  0  0  0  0
   -2.5550    1.6280   -0.2110 H   0  0  0  0  0  0  0  0  0  0  0  0
    0.1550   -0.0760   -0.9570 C   0  0  1  0  0  0  0  0  0  0  0  0
    0.1230   -0.8950   -1.6430 H   0  0  0  0  0  0  0  0  0  0  0  0
    0.2060    1.1800   -1.8180 C   0  0  0  0  0  0  0  0  0  0  0  0
   -0.4520    0.8390   -2.6820 H   0  0  0  0  0  0  0  0  0  0  0  0
    1.2670    1.4730   -2.1090 H   0  0  0  0  0  0  0  0  0  0  0  0
   -0.6120    2.1810   -0.9470 C   0  0  0  0  0  0  0  0  0  0  0  0
   -1.0760    2.9720   -1.5870 H   0  0  0  0  0  0  0  0  0  0  0  0
    0.1330    2.6310   -0.2220 H   0  0  0  0  0  0  0  0  0  0  0  0
    1.3190   -0.2710   -0.0800 C   0  0  0  0  0  0  0  0  0  0  0  0
    1.6380    0.5980    0.7050 O   0  0  0  0  0  0  0  0  0  0  0  0
    1.9830   -1.4760   -0.1750 N   0  0  0  0  0  0  0  0  0  0  0  0
    1.6530   -2.2170   -0.7210 H   0  0  0  0  0  0  0  0  0  0  0  0
    3.2400   -1.8420    0.4870 C   0  0  0  0  0  0  0  0  0  0  0  0
    3.9930   -1.0130    0.3640 H   0  0  0  0  0  0  0  0  0  0  0  0
    3.0930   -2.0260    1.5640 H   0  0  0  0  0  0  0  0  0  0  0  0
    3.6640   -2.6980   -0.0140 H   0  0  0  0  0  0  0  0  0  0  0  0
  1  4  1  0  0  0  0
  1  3  1  0  0  0  0
  2  1  1  0  0  0  0
  5  1  1  0  0  0  0
  6  5  2  0  0  0  0
  7  8  1  0  0  0  0
  7  5  1  0  0  0  0
  8  9  1  0  0  0  0
 10  8  1  0  0  0  0
 11 12  1  6  0  0  0
 11  7  1  0  0  0  0
 11 19  1  0  0  0  0
 13 11  1  0  0  0  0
 13 16  1  0  0  0  0
 14 13  1  0  0  0  0
 15 13  1  0  0  0  0
 16 18  1  0  0  0  0
 16  8  1  0  0  0  0
 17 16  1  0  0  0  0
 19 20  2  0  0  0  0
 21 19  1  0  0  0  0
 21 23  1  0  0  0  0
 22 21  1  0  0  0  0
 23 25  1  0  0  0  0
 24 23  1  0  0  0  0
 26 23  1  0  0  0  0
M  END
>  <REMARK>
  EXECUTING CHARMM SCRIPT FROM PYTHON                                           
   DATE:    12/ 8/23     14:57:57      CREATED BY USER: himmelreich             

$$$$
