ser-bed88f19-0eec-4487-ae1d-1efe8300bbfe-end.pdb
 OpenBabel12122316093D

 23 22  0  0  1  0  0  0  0  0999 V2000
   -3.6050    0.5530    0.7930 C   0  0  0  0  0  0  0  0  0  0  0  0
   -4.3620   -0.1570    1.0580 H   0  0  0  0  0  0  0  0  0  0  0  0
   -3.8260    1.1080   -0.0760 H   0  0  0  0  0  0  0  0  0  0  0  0
   -3.4690    1.3280    1.5490 H   0  0  0  0  0  0  0  0  0  0  0  0
   -2.3500   -0.2150    0.5190 C   0  0  0  0  0  0  0  0  0  0  0  0
   -2.3450   -1.4150    0.8040 O   0  0  0  0  0  0  0  0  0  0  0  0
   -1.2850    0.3510   -0.0610 N   0  0  0  0  0  0  0  0  0  0  0  0
   -1.4920    1.2190   -0.4750 H   0  0  0  0  0  0  0  0  0  0  0  0
   -0.0770   -0.3650   -0.3860 C   0  0  1  0  0  0  0  0  0  0  0  0
    0.0550   -1.2710    0.1850 H   0  0  0  0  0  0  0  0  0  0  0  0
   -0.0130   -0.6750   -1.9160 C   0  0  0  0  0  0  0  0  0  0  0  0
   -0.7270   -1.4270   -2.2300 H   0  0  0  0  0  0  0  0  0  0  0  0
   -0.3700    0.2540   -2.3850 H   0  0  0  0  0  0  0  0  0  0  0  0
    1.2690   -1.1250   -2.3650 O   0  0  0  0  0  0  0  0  0  0  0  0
    1.3430   -0.9050   -3.3350 H   0  0  0  0  0  0  0  0  0  0  0  0
    1.0570    0.5910    0.0080 C   0  0  0  0  0  0  0  0  0  0  0  0
    1.0510    1.7050   -0.4080 O   0  0  0  0  0  0  0  0  0  0  0  0
    2.0310    0.1380    0.8240 N   0  0  0  0  0  0  0  0  0  0  0  0
    1.9780   -0.7920    1.2090 H   0  0  0  0  0  0  0  0  0  0  0  0
    3.1460    0.9030    1.2550 C   0  0  0  0  0  0  0  0  0  0  0  0
    3.9380    0.1890    1.5590 H   0  0  0  0  0  0  0  0  0  0  0  0
    3.4500    1.4860    0.3550 H   0  0  0  0  0  0  0  0  0  0  0  0
    2.9380    1.6200    2.0900 H   0  0  0  0  0  0  0  0  0  0  0  0
  1  2  1  0  0  0  0
  1  4  1  0  0  0  0
  3  1  1  0  0  0  0
  5  1  1  0  0  0  0
  5  6  2  0  0  0  0
  7  5  1  0  0  0  0
  8  7  1  0  0  0  0
  9  7  1  0  0  0  0
  9 16  1  0  0  0  0
  9 10  1  1  0  0  0
 11  9  1  0  0  0  0
 12 11  1  0  0  0  0
 13 11  1  0  0  0  0
 14 11  1  0  0  0  0
 15 14  1  0  0  0  0
 16 18  1  0  0  0  0
 17 16  2  0  0  0  0
 18 19  1  0  0  0  0
 18 20  1  0  0  0  0
 20 21  1  0  0  0  0
 20 23  1  0  0  0  0
 22 20  1  0  0  0  0
M  END
>  <REMARK>
  EXECUTING CHARMM SCRIPT FROM PYTHON                                           
   DATE:    12/ 8/23     14:58: 0      CREATED BY USER: himmelreich             

$$$$
