ser-bed88f19-0eec-4487-ae1d-1efe8300bbfe.pdb
 OpenBabel12122316093D

 23 22  0  0  1  0  0  0  0  0999 V2000
   -3.7460   -0.2050    0.0600 C   0  0  0  0  0  0  0  0  0  0  0  0
   -4.1700    0.5310    0.7760 H   0  0  0  0  0  0  0  0  0  0  0  0
   -3.5890   -1.1750    0.5760 H   0  0  0  0  0  0  0  0  0  0  0  0
   -4.4720   -0.3540   -0.7680 H   0  0  0  0  0  0  0  0  0  0  0  0
   -2.4710    0.3090   -0.4920 C   0  0  0  0  0  0  0  0  0  0  0  0
   -2.4580    1.0830   -1.4380 O   0  0  0  0  0  0  0  0  0  0  0  0
   -1.3510   -0.1150    0.0970 N   0  0  0  0  0  0  0  0  0  0  0  0
   -1.3720   -0.7750    0.8460 H   0  0  0  0  0  0  0  0  0  0  0  0
   -0.0250    0.2160   -0.3900 C   0  0  1  0  0  0  0  0  0  0  0  0
   -0.0010    0.0680   -1.4610 H   0  0  0  0  0  0  0  0  0  0  0  0
    0.4100    1.6750   -0.0520 C   0  0  0  0  0  0  0  0  0  0  0  0
   -0.3740    2.3590   -0.4500 H   0  0  0  0  0  0  0  0  0  0  0  0
    0.4510    1.8110    1.0520 H   0  0  0  0  0  0  0  0  0  0  0  0
    1.6650    2.0290   -0.6460 O   0  0  0  0  0  0  0  0  0  0  0  0
    1.7710    2.9820   -0.5440 H   0  0  0  0  0  0  0  0  0  0  0  0
    0.9080   -0.8020    0.2360 C   0  0  0  0  0  0  0  0  0  0  0  0
    0.4600   -1.6900    0.9590 O   0  0  0  0  0  0  0  0  0  0  0  0
    2.2210   -0.7060   -0.0340 N   0  0  0  0  0  0  0  0  0  0  0  0
    2.5230    0.0920   -0.5600 H   0  0  0  0  0  0  0  0  0  0  0  0
    3.2030   -1.6430    0.4580 C   0  0  0  0  0  0  0  0  0  0  0  0
    2.8250   -2.6900    0.4040 H   0  0  0  0  0  0  0  0  0  0  0  0
    4.1340   -1.5820   -0.1470 H   0  0  0  0  0  0  0  0  0  0  0  0
    3.4570   -1.4180    1.5180 H   0  0  0  0  0  0  0  0  0  0  0  0
  1  3  1  0  0  0  0
  1  2  1  0  0  0  0
  4  1  1  0  0  0  0
  5  1  1  0  0  0  0
  5  7  1  0  0  0  0
  6  5  2  0  0  0  0
  7  8  1  0  0  0  0
  9 10  1  6  0  0  0
  9 11  1  0  0  0  0
  9  7  1  0  0  0  0
  9 16  1  0  0  0  0
 11 13  1  0  0  0  0
 12 11  1  0  0  0  0
 14 15  1  0  0  0  0
 14 11  1  0  0  0  0
 16 17  2  0  0  0  0
 18 16  1  0  0  0  0
 18 20  1  0  0  0  0
 19 18  1  0  0  0  0
 20 23  1  0  0  0  0
 21 20  1  0  0  0  0
 22 20  1  0  0  0  0
M  END
>  <REMARK>
  EXECUTING CHARMM SCRIPT FROM PYTHON                                           
   DATE:    12/ 8/23     14:57:59      CREATED BY USER: himmelreich             

$$$$
