thr-79786930-01c3-4eb1-8484-aa3d374e5c0d-min.pdb
 OpenBabel12122316093D

 26 25  0  0  1  0  0  0  0  0999 V2000
   -3.8480   -0.1840   -0.0300 C   0  0  0  0  0  0  0  0  0  0  0  0
   -4.2510    0.7310    0.4540 H   0  0  0  0  0  0  0  0  0  0  0  0
   -3.7290   -0.9820    0.7330 H   0  0  0  0  0  0  0  0  0  0  0  0
   -4.5720   -0.5270   -0.8000 H   0  0  0  0  0  0  0  0  0  0  0  0
   -2.5500    0.1170   -0.6770 C   0  0  0  0  0  0  0  0  0  0  0  0
   -2.5010    0.6450   -1.7800 O   0  0  0  0  0  0  0  0  0  0  0  0
   -1.4520   -0.2180   -0.0000 N   0  0  0  0  0  0  0  0  0  0  0  0
   -1.5000   -0.6760    0.8860 H   0  0  0  0  0  0  0  0  0  0  0  0
   -0.1120   -0.1110   -0.5540 C   0  0  1  0  0  0  0  0  0  0  0  0
   -0.1320   -0.5130   -1.5580 H   0  0  0  0  0  0  0  0  0  0  0  0
    0.4470    1.3170   -0.6080 C   0  0  2  0  0  0  0  0  0  0  0  0
   -0.3100    1.9550   -1.1240 H   0  0  0  0  0  0  0  0  0  0  0  0
    1.6590    1.3850   -1.3570 O   0  0  0  0  0  0  0  0  0  0  0  0
    1.7730    2.3100   -1.5930 H   0  0  0  0  0  0  0  0  0  0  0  0
    0.7180    1.8990    0.7900 C   0  0  0  0  0  0  0  0  0  0  0  0
    1.0180    2.9650    0.7130 H   0  0  0  0  0  0  0  0  0  0  0  0
   -0.1960    1.8410    1.4180 H   0  0  0  0  0  0  0  0  0  0  0  0
    1.5340    1.3500    1.3050 H   0  0  0  0  0  0  0  0  0  0  0  0
    0.7480   -1.0350    0.2780 C   0  0  0  0  0  0  0  0  0  0  0  0
    0.2600   -1.6600    1.2190 O   0  0  0  0  0  0  0  0  0  0  0  0
    2.0450   -1.1610   -0.0550 N   0  0  0  0  0  0  0  0  0  0  0  0
    2.3930   -0.5640   -0.7800 H   0  0  0  0  0  0  0  0  0  0  0  0
    2.9530   -2.0420    0.6390 C   0  0  0  0  0  0  0  0  0  0  0  0
    2.4830   -3.0350    0.8300 H   0  0  0  0  0  0  0  0  0  0  0  0
    3.8720   -2.2050    0.0340 H   0  0  0  0  0  0  0  0  0  0  0  0
    3.2480   -1.6020    1.6180 H   0  0  0  0  0  0  0  0  0  0  0  0
  1  2  1  0  0  0  0
  1  3  1  0  0  0  0
  4  1  1  0  0  0  0
  5  1  1  0  0  0  0
  5  7  1  0  0  0  0
  6  5  2  0  0  0  0
  7  8  1  0  0  0  0
  9 10  1  6  0  0  0
  9  7  1  0  0  0  0
  9 19  1  0  0  0  0
 11 12  1  6  0  0  0
 11  9  1  0  0  0  0
 11 15  1  0  0  0  0
 13 11  1  0  0  0  0
 14 13  1  0  0  0  0
 15 18  1  0  0  0  0
 15 17  1  0  0  0  0
 16 15  1  0  0  0  0
 19 20  2  0  0  0  0
 21 19  1  0  0  0  0
 21 23  1  0  0  0  0
 22 21  1  0  0  0  0
 23 24  1  0  0  0  0
 23 26  1  0  0  0  0
 25 23  1  0  0  0  0
M  END
>  <REMARK>
  EXECUTING CHARMM SCRIPT FROM PYTHON                                           
   DATE:    12/ 8/23     14:58: 2      CREATED BY USER: himmelreich             

$$$$
