thr-79786930-01c3-4eb1-8484-aa3d374e5c0d-end.pdb
 OpenBabel12122316093D

 26 25  0  0  1  0  0  0  0  0999 V2000
   -3.7490   -0.4700    0.3280 C   0  0  0  0  0  0  0  0  0  0  0  0
   -3.6900   -0.5300    1.4870 H   0  0  0  0  0  0  0  0  0  0  0  0
   -3.8710   -1.4720   -0.1620 H   0  0  0  0  0  0  0  0  0  0  0  0
   -4.6800   -0.0070    0.0410 H   0  0  0  0  0  0  0  0  0  0  0  0
   -2.6300    0.2220   -0.2280 C   0  0  0  0  0  0  0  0  0  0  0  0
   -2.8730    0.9170   -1.2160 O   0  0  0  0  0  0  0  0  0  0  0  0
   -1.3610   -0.0210    0.3010 N   0  0  0  0  0  0  0  0  0  0  0  0
   -1.2930   -0.4670    1.2080 H   0  0  0  0  0  0  0  0  0  0  0  0
   -0.1630    0.0070   -0.4810 C   0  0  1  0  0  0  0  0  0  0  0  0
   -0.3510   -0.5170   -1.4330 H   0  0  0  0  0  0  0  0  0  0  0  0
    0.4650    1.3530   -0.8520 C   0  0  2  0  0  0  0  0  0  0  0  0
   -0.2240    1.9440   -1.4680 H   0  0  0  0  0  0  0  0  0  0  0  0
    1.6500    1.1840   -1.6360 O   0  0  0  0  0  0  0  0  0  0  0  0
    1.4550    1.2120   -2.5770 H   0  0  0  0  0  0  0  0  0  0  0  0
    0.8480    2.1470    0.4290 C   0  0  0  0  0  0  0  0  0  0  0  0
    1.2440    3.1420    0.2120 H   0  0  0  0  0  0  0  0  0  0  0  0
   -0.0410    2.3480    0.9450 H   0  0  0  0  0  0  0  0  0  0  0  0
    1.5110    1.5710    1.1100 H   0  0  0  0  0  0  0  0  0  0  0  0
    0.8530   -0.9780    0.1830 C   0  0  0  0  0  0  0  0  0  0  0  0
    0.6160   -1.2900    1.3680 O   0  0  0  0  0  0  0  0  0  0  0  0
    1.9200   -1.5320   -0.4200 N   0  0  0  0  0  0  0  0  0  0  0  0
    1.9940   -1.1980   -1.3330 H   0  0  0  0  0  0  0  0  0  0  0  0
    2.8400   -2.4440    0.2090 C   0  0  0  0  0  0  0  0  0  0  0  0
    2.2600   -2.9960    0.9910 H   0  0  0  0  0  0  0  0  0  0  0  0
    3.1750   -3.2210   -0.4590 H   0  0  0  0  0  0  0  0  0  0  0  0
    3.7350   -1.8780    0.5210 H   0  0  0  0  0  0  0  0  0  0  0  0
  1  2  1  0  0  0  0
  3  1  1  0  0  0  0
  4  1  1  0  0  0  0
  5  7  1  0  0  0  0
  5  1  1  0  0  0  0
  6  5  2  0  0  0  0
  7  8  1  0  0  0  0
  9 10  1  6  0  0  0
  9 19  1  0  0  0  0
  9  7  1  0  0  0  0
 11 12  1  6  0  0  0
 11  9  1  0  0  0  0
 11 15  1  0  0  0  0
 13 11  1  0  0  0  0
 14 13  1  0  0  0  0
 15 17  1  0  0  0  0
 15 18  1  0  0  0  0
 16 15  1  0  0  0  0
 19 20  2  0  0  0  0
 21 19  1  0  0  0  0
 21 23  1  0  0  0  0
 22 21  1  0  0  0  0
 23 26  1  0  0  0  0
 23 24  1  0  0  0  0
 25 23  1  0  0  0  0
M  END
>  <REMARK>
  EXECUTING CHARMM SCRIPT FROM PYTHON                                           
   DATE:    12/ 8/23     14:58: 3      CREATED BY USER: himmelreich             

$$$$
