trp-0ace3977-f28e-40b1-88e6-3e16d0adf35d-end.pdb
 OpenBabel12122316093D

 36 37  0  0  1  0  0  0  0  0999 V2000
   -4.9400    1.2100    0.0520 C   0  0  0  0  0  0  0  0  0  0  0  0
   -5.4450    0.8500   -0.9260 H   0  0  0  0  0  0  0  0  0  0  0  0
   -5.3420    2.2600    0.0670 H   0  0  0  0  0  0  0  0  0  0  0  0
   -5.2160    0.6500    0.8980 H   0  0  0  0  0  0  0  0  0  0  0  0
   -3.4720    1.3770   -0.0600 C   0  0  0  0  0  0  0  0  0  0  0  0
   -3.0380    2.3430   -0.5800 O   0  0  0  0  0  0  0  0  0  0  0  0
   -2.8350    0.3200    0.3960 N   0  0  0  0  0  0  0  0  0  0  0  0
   -3.4510   -0.4050    0.6670 H   0  0  0  0  0  0  0  0  0  0  0  0
   -1.4380    0.0920    0.1160 C   0  0  1  0  0  0  0  0  0  0  0  0
   -1.2630    0.5890   -0.7270 H   0  0  0  0  0  0  0  0  0  0  0  0
   -0.6490    0.6030    1.3230 C   0  0  0  0  0  0  0  0  0  0  0  0
   -0.8910    1.6730    1.3370 H   0  0  0  0  0  0  0  0  0  0  0  0
   -1.1280    0.1710    2.1690 H   0  0  0  0  0  0  0  0  0  0  0  0
    0.8670    0.3920    1.3690 C   0  0  0  0  0  0  0  0  0  0  0  0
    1.5820   -0.4350    2.1930 C   0  0  0  0  0  0  0  0  0  0  0  0
    1.2250   -0.8050    3.1340 H   0  0  0  0  0  0  0  0  0  0  0  0
    2.8760   -0.4720    1.7330 N   0  0  0  0  0  0  0  0  0  0  0  0
    3.5630   -0.6250    2.2840 H   0  0  0  0  0  0  0  0  0  0  0  0
    3.0840    0.1820    0.6060 C   0  0  0  0  0  0  0  0  0  0  0  0
    1.7600    0.6960    0.2880 C   0  0  0  0  0  0  0  0  0  0  0  0
    1.6990    1.3560   -0.9590 C   0  0  0  0  0  0  0  0  0  0  0  0
    0.8270    1.8280   -1.3200 H   0  0  0  0  0  0  0  0  0  0  0  0
    2.8390    1.3640   -1.8810 C   0  0  0  0  0  0  0  0  0  0  0  0
    2.8400    1.7560   -2.9140 H   0  0  0  0  0  0  0  0  0  0  0  0
    4.1590    0.1000   -0.2800 C   0  0  0  0  0  0  0  0  0  0  0  0
    5.0260   -0.3470    0.0620 H   0  0  0  0  0  0  0  0  0  0  0  0
    3.9950    0.7050   -1.4990 C   0  0  0  0  0  0  0  0  0  0  0  0
    4.7930    0.8100   -2.2090 H   0  0  0  0  0  0  0  0  0  0  0  0
   -1.1640   -1.3550   -0.1730 C   0  0  0  0  0  0  0  0  0  0  0  0
   -2.0580   -2.1740   -0.0780 O   0  0  0  0  0  0  0  0  0  0  0  0
    0.0150   -1.7410   -0.6710 N   0  0  0  0  0  0  0  0  0  0  0  0
    0.8080   -1.1270   -0.7040 H   0  0  0  0  0  0  0  0  0  0  0  0
    0.3790   -3.1140   -0.8890 C   0  0  0  0  0  0  0  0  0  0  0  0
    1.2980   -3.1570   -1.5190 H   0  0  0  0  0  0  0  0  0  0  0  0
    0.6720   -3.5390    0.0600 H   0  0  0  0  0  0  0  0  0  0  0  0
   -0.3750   -3.7520   -1.4830 H   0  0  0  0  0  0  0  0  0  0  0  0
  1  3  1  0  0  0  0
  1  4  1  0  0  0  0
  2  1  1  0  0  0  0
  5  1  1  0  0  0  0
  5  7  1  0  0  0  0
  6  5  2  0  0  0  0
  7  8  1  0  0  0  0
  9 10  1  6  0  0  0
  9  7  1  0  0  0  0
  9 11  1  0  0  0  0
 11 12  1  0  0  0  0
 11 14  1  0  0  0  0
 11 13  1  0  0  0  0
 14 15  2  0  0  0  0
 15 16  1  0  0  0  0
 17 15  1  0  0  0  0
 17 18  1  0  0  0  0
 19 17  1  0  0  0  0
 20 19  1  0  0  0  0
 20 14  1  0  0  0  0
 21 20  2  0  0  0  0
 22 21  1  0  0  0  0
 23 27  2  0  0  0  0
 23 21  1  0  0  0  0
 24 23  1  0  0  0  0
 25 26  1  0  0  0  0
 25 19  2  0  0  0  0
 27 25  1  0  0  0  0
 28 27  1  0  0  0  0
 29 30  2  0  0  0  0
 29  9  1  0  0  0  0
 31 29  1  0  0  0  0
 32 31  1  0  0  0  0
 33 31  1  0  0  0  0
 33 35  1  0  0  0  0
 34 33  1  0  0  0  0
 36 33  1  0  0  0  0
M  END
>  <REMARK>
  EXECUTING CHARMM SCRIPT FROM PYTHON                                           
   DATE:    12/ 8/23     14:58: 6      CREATED BY USER: himmelreich             

$$$$
