trp-0ace3977-f28e-40b1-88e6-3e16d0adf35d.pdb
 OpenBabel12122316093D

 36 37  0  0  1  0  0  0  0  0999 V2000
   -4.6770    1.8440   -0.1680 C   0  0  0  0  0  0  0  0  0  0  0  0
   -4.7120    2.4750    0.7450 H   0  0  0  0  0  0  0  0  0  0  0  0
   -5.2940    0.9330   -0.0130 H   0  0  0  0  0  0  0  0  0  0  0  0
   -5.0930    2.4240   -1.0200 H   0  0  0  0  0  0  0  0  0  0  0  0
   -3.2770    1.4710   -0.4710 C   0  0  0  0  0  0  0  0  0  0  0  0
   -2.6740    1.9800   -1.4050 O   0  0  0  0  0  0  0  0  0  0  0  0
   -2.7200    0.5560    0.3250 N   0  0  0  0  0  0  0  0  0  0  0  0
   -3.2490    0.1170    1.0430 H   0  0  0  0  0  0  0  0  0  0  0  0
   -1.3770    0.0540    0.1330 C   0  0  1  0  0  0  0  0  0  0  0  0
   -0.9390    0.4820   -0.7600 H   0  0  0  0  0  0  0  0  0  0  0  0
   -0.4850    0.3930    1.3580 C   0  0  0  0  0  0  0  0  0  0  0  0
   -0.5390    1.4940    1.5100 H   0  0  0  0  0  0  0  0  0  0  0  0
   -0.9210   -0.0780    2.2680 H   0  0  0  0  0  0  0  0  0  0  0  0
    0.9580    0.0110    1.2360 C   0  0  0  0  0  0  0  0  0  0  0  0
    1.5870   -1.0380    1.8580 C   0  0  0  0  0  0  0  0  0  0  0  0
    1.0950   -1.7250    2.5370 H   0  0  0  0  0  0  0  0  0  0  0  0
    2.9130   -1.0650    1.4840 N   0  0  0  0  0  0  0  0  0  0  0  0
    3.6090   -1.6690    1.7990 H   0  0  0  0  0  0  0  0  0  0  0  0
    3.1600   -0.0430    0.6130 C   0  0  0  0  0  0  0  0  0  0  0  0
    1.9520    0.6600    0.4220 C   0  0  0  0  0  0  0  0  0  0  0  0
    1.9250    1.7630   -0.4350 C   0  0  0  0  0  0  0  0  0  0  0  0
    1.0170    2.3240   -0.5950 H   0  0  0  0  0  0  0  0  0  0  0  0
    3.1100    2.1410   -1.0740 C   0  0  0  0  0  0  0  0  0  0  0  0
    3.1080    2.9990   -1.7350 H   0  0  0  0  0  0  0  0  0  0  0  0
    4.3350    0.3270   -0.0240 C   0  0  0  0  0  0  0  0  0  0  0  0
    5.2550   -0.2120    0.1290 H   0  0  0  0  0  0  0  0  0  0  0  0
    4.2940    1.4370   -0.8730 C   0  0  0  0  0  0  0  0  0  0  0  0
    5.1960    1.7550   -1.3830 H   0  0  0  0  0  0  0  0  0  0  0  0
   -1.4730   -1.4450   -0.0750 C   0  0  0  0  0  0  0  0  0  0  0  0
   -2.2570   -2.1190    0.5910 O   0  0  0  0  0  0  0  0  0  0  0  0
   -0.6880   -2.0010   -1.0170 N   0  0  0  0  0  0  0  0  0  0  0  0
   -0.0510   -1.4420   -1.5420 H   0  0  0  0  0  0  0  0  0  0  0  0
   -0.7570   -3.4130   -1.3070 C   0  0  0  0  0  0  0  0  0  0  0  0
   -1.7960   -3.7080   -1.5850 H   0  0  0  0  0  0  0  0  0  0  0  0
   -0.0810   -3.6690   -2.1520 H   0  0  0  0  0  0  0  0  0  0  0  0
   -0.4560   -4.0110   -0.4160 H   0  0  0  0  0  0  0  0  0  0  0  0
  1  3  1  0  0  0  0
  1  2  1  0  0  0  0
  4  1  1  0  0  0  0
  5  1  1  0  0  0  0
  5  7  1  0  0  0  0
  6  5  2  0  0  0  0
  7  8  1  0  0  0  0
  9 10  1  6  0  0  0
  9  7  1  0  0  0  0
  9 11  1  0  0  0  0
 11 12  1  0  0  0  0
 11 13  1  0  0  0  0
 14 11  1  0  0  0  0
 14 15  2  0  0  0  0
 15 16  1  0  0  0  0
 17 18  1  0  0  0  0
 17 15  1  0  0  0  0
 19 17  1  0  0  0  0
 20 19  1  0  0  0  0
 20 14  1  0  0  0  0
 21 20  2  0  0  0  0
 22 21  1  0  0  0  0
 23 27  2  0  0  0  0
 23 21  1  0  0  0  0
 24 23  1  0  0  0  0
 25 26  1  0  0  0  0
 25 19  2  0  0  0  0
 27 25  1  0  0  0  0
 28 27  1  0  0  0  0
 29  9  1  0  0  0  0
 29 30  2  0  0  0  0
 31 29  1  0  0  0  0
 32 31  1  0  0  0  0
 33 31  1  0  0  0  0
 33 36  1  0  0  0  0
 34 33  1  0  0  0  0
 35 33  1  0  0  0  0
M  END
>  <REMARK>
  EXECUTING CHARMM SCRIPT FROM PYTHON                                           
   DATE:    12/ 8/23     14:58: 5      CREATED BY USER: himmelreich             

$$$$
