tyr-e8142a99-b765-4a78-8eea-5cf2a3a91e8f-end.pdb
 OpenBabel12122316093D

 33 33  0  0  1  0  0  0  0  0999 V2000
   -4.7480    1.3070   -0.0830 C   0  0  0  0  0  0  0  0  0  0  0  0
   -5.5670    1.1360   -0.8440 H   0  0  0  0  0  0  0  0  0  0  0  0
   -4.6500    2.2450    0.4250 H   0  0  0  0  0  0  0  0  0  0  0  0
   -5.0080    0.5360    0.6810 H   0  0  0  0  0  0  0  0  0  0  0  0
   -3.4170    0.9550   -0.7020 C   0  0  0  0  0  0  0  0  0  0  0  0
   -3.2090    1.1580   -1.8870 O   0  0  0  0  0  0  0  0  0  0  0  0
   -2.5680    0.3470    0.1020 N   0  0  0  0  0  0  0  0  0  0  0  0
   -2.9540    0.1320    1.0430 H   0  0  0  0  0  0  0  0  0  0  0  0
   -1.1820   -0.0570   -0.1190 C   0  0  1  0  0  0  0  0  0  0  0  0
   -1.1300   -0.0930   -1.2080 H   0  0  0  0  0  0  0  0  0  0  0  0
   -0.3770    1.0390    0.5060 C   0  0  0  0  0  0  0  0  0  0  0  0
   -0.6840    2.0090    0.1630 H   0  0  0  0  0  0  0  0  0  0  0  0
   -0.5770    1.1780    1.5880 H   0  0  0  0  0  0  0  0  0  0  0  0
    1.1170    0.9530    0.2240 C   0  0  0  0  0  0  0  0  0  0  0  0
    1.5050    0.9930   -1.1200 C   0  0  0  0  0  0  0  0  0  0  0  0
    0.7090    1.2500   -1.8490 H   0  0  0  0  0  0  0  0  0  0  0  0
    2.8510    0.9190   -1.4700 C   0  0  0  0  0  0  0  0  0  0  0  0
    3.2180    0.8350   -2.4930 H   0  0  0  0  0  0  0  0  0  0  0  0
    3.8310    0.8140   -0.4250 C   0  0  0  0  0  0  0  0  0  0  0  0
    5.1590    0.7230   -0.8500 O   0  0  0  0  0  0  0  0  0  0  0  0
    5.6110    0.1000   -0.2250 H   0  0  0  0  0  0  0  0  0  0  0  0
    2.0830    0.7410    1.2470 C   0  0  0  0  0  0  0  0  0  0  0  0
    1.7480    0.7800    2.2630 H   0  0  0  0  0  0  0  0  0  0  0  0
    3.4370    0.7970    0.9450 C   0  0  0  0  0  0  0  0  0  0  0  0
    4.2330    0.6430    1.6970 H   0  0  0  0  0  0  0  0  0  0  0  0
   -0.9290   -1.4630    0.4730 C   0  0  0  0  0  0  0  0  0  0  0  0
   -1.6780   -2.0920    1.2860 O   0  0  0  0  0  0  0  0  0  0  0  0
    0.2340   -2.0420    0.1070 N   0  0  0  0  0  0  0  0  0  0  0  0
    0.7960   -1.4680   -0.5770 H   0  0  0  0  0  0  0  0  0  0  0  0
    0.7900   -3.1650    0.8310 C   0  0  0  0  0  0  0  0  0  0  0  0
    1.3790   -3.8450    0.1620 H   0  0  0  0  0  0  0  0  0  0  0  0
    1.4350   -2.6580    1.5930 H   0  0  0  0  0  0  0  0  0  0  0  0
    0.1330   -3.9080    1.3600 H   0  0  0  0  0  0  0  0  0  0  0  0
  1  3  1  0  0  0  0
  1  4  1  0  0  0  0
  2  1  1  0  0  0  0
  5  1  1  0  0  0  0
  5  7  1  0  0  0  0
  6  5  2  0  0  0  0
  7  8  1  0  0  0  0
  9 10  1  6  0  0  0
  9  7  1  0  0  0  0
  9 26  1  0  0  0  0
  9 11  1  0  0  0  0
 11 13  1  0  0  0  0
 12 11  1  0  0  0  0
 14 11  1  0  0  0  0
 14 22  1  0  0  0  0
 15 14  2  0  0  0  0
 16 15  1  0  0  0  0
 17 15  1  0  0  0  0
 17 19  2  0  0  0  0
 18 17  1  0  0  0  0
 19 24  1  0  0  0  0
 20 19  1  0  0  0  0
 20 21  1  0  0  0  0
 22 23  1  0  0  0  0
 24 22  2  0  0  0  0
 24 25  1  0  0  0  0
 26 27  2  0  0  0  0
 28 26  1  0  0  0  0
 28 30  1  0  0  0  0
 29 28  1  0  0  0  0
 30 33  1  0  0  0  0
 30 32  1  0  0  0  0
 31 30  1  0  0  0  0
M  END
>  <REMARK>
  EXECUTING CHARMM SCRIPT FROM PYTHON                                           
   DATE:    12/ 8/23     14:58: 9      CREATED BY USER: himmelreich             

$$$$
