tyr-e8142a99-b765-4a78-8eea-5cf2a3a91e8f-min.pdb
 OpenBabel12122316093D

 33 33  0  0  1  0  0  0  0  0999 V2000
   -4.9300    0.6250   -0.1560 C   0  0  0  0  0  0  0  0  0  0  0  0
   -5.0130    1.3280    0.6990 H   0  0  0  0  0  0  0  0  0  0  0  0
   -5.2610   -0.3860    0.1640 H   0  0  0  0  0  0  0  0  0  0  0  0
   -5.5930    0.9730   -0.9760 H   0  0  0  0  0  0  0  0  0  0  0  0
   -3.5340    0.5650   -0.6450 C   0  0  0  0  0  0  0  0  0  0  0  0
   -3.2750    0.6460   -1.8380 O   0  0  0  0  0  0  0  0  0  0  0  0
   -2.5860    0.4120    0.2830 N   0  0  0  0  0  0  0  0  0  0  0  0
   -2.8360    0.3150    1.2390 H   0  0  0  0  0  0  0  0  0  0  0  0
   -1.1850    0.2340   -0.0300 C   0  0  1  0  0  0  0  0  0  0  0  0
   -1.0090    0.4660   -1.0740 H   0  0  0  0  0  0  0  0  0  0  0  0
   -0.3150    1.1720    0.8540 C   0  0  0  0  0  0  0  0  0  0  0  0
   -0.6320    2.2250    0.6870 H   0  0  0  0  0  0  0  0  0  0  0  0
   -0.4700    0.9320    1.9290 H   0  0  0  0  0  0  0  0  0  0  0  0
    1.1550    1.0630    0.5310 C   0  0  0  0  0  0  0  0  0  0  0  0
    1.6960    1.7660   -0.5580 C   0  0  0  0  0  0  0  0  0  0  0  0
    1.0570    2.3940   -1.1610 H   0  0  0  0  0  0  0  0  0  0  0  0
    3.0580    1.6510   -0.8740 C   0  0  0  0  0  0  0  0  0  0  0  0
    3.4690    2.1850   -1.7180 H   0  0  0  0  0  0  0  0  0  0  0  0
    3.8910    0.8430   -0.0960 C   0  0  0  0  0  0  0  0  0  0  0  0
    5.2580    0.7400   -0.4170 O   0  0  0  0  0  0  0  0  0  0  0  0
    5.6770    0.2070    0.2560 H   0  0  0  0  0  0  0  0  0  0  0  0
    2.0040    0.2570    1.3100 C   0  0  0  0  0  0  0  0  0  0  0  0
    1.5950   -0.2950    2.1430 H   0  0  0  0  0  0  0  0  0  0  0  0
    3.3670    0.1430    0.9970 C   0  0  0  0  0  0  0  0  0  0  0  0
    4.0020   -0.4860    1.6010 H   0  0  0  0  0  0  0  0  0  0  0  0
   -0.8260   -1.2310    0.1700 C   0  0  0  0  0  0  0  0  0  0  0  0
   -1.3270   -1.8820    1.0860 O   0  0  0  0  0  0  0  0  0  0  0  0
    0.0530   -1.7850   -0.6850 N   0  0  0  0  0  0  0  0  0  0  0  0
    0.4580   -1.2370   -1.4100 H   0  0  0  0  0  0  0  0  0  0  0  0
    0.4370   -3.1750   -0.5960 C   0  0  0  0  0  0  0  0  0  0  0  0
   -0.3520   -3.8200   -1.0370 H   0  0  0  0  0  0  0  0  0  0  0  0
    1.3840   -3.3590   -1.1420 H   0  0  0  0  0  0  0  0  0  0  0  0
    0.5840   -3.4860    0.4640 H   0  0  0  0  0  0  0  0  0  0  0  0
  1  3  1  0  0  0  0
  1  2  1  0  0  0  0
  4  1  1  0  0  0  0
  5  1  1  0  0  0  0
  5  7  1  0  0  0  0
  6  5  2  0  0  0  0
  7  8  1  0  0  0  0
  9 10  1  6  0  0  0
  9 26  1  0  0  0  0
  9  7  1  0  0  0  0
  9 11  1  0  0  0  0
 11 13  1  0  0  0  0
 12 11  1  0  0  0  0
 14 11  1  0  0  0  0
 14 22  1  0  0  0  0
 15 14  2  0  0  0  0
 16 15  1  0  0  0  0
 17 15  1  0  0  0  0
 17 19  2  0  0  0  0
 18 17  1  0  0  0  0
 19 24  1  0  0  0  0
 20 19  1  0  0  0  0
 20 21  1  0  0  0  0
 22 23  1  0  0  0  0
 24 22  2  0  0  0  0
 24 25  1  0  0  0  0
 26 27  2  0  0  0  0
 28 30  1  0  0  0  0
 28 26  1  0  0  0  0
 29 28  1  0  0  0  0
 30 33  1  0  0  0  0
 31 30  1  0  0  0  0
 32 30  1  0  0  0  0
M  END
>  <REMARK>
  EXECUTING CHARMM SCRIPT FROM PYTHON                                           
   DATE:    12/ 8/23     14:58: 8      CREATED BY USER: himmelreich             

$$$$
